data/shbh_evnc_2/p13u/p13uhs0_1247/DSSfiles/Master.dss
Clear

New Circuit.substation_p13uhs0_69 bus1=p13uhs0_69 pu=1.0 basekV=69.0 R1=1e-05 X1=1e-05 R0=1e-05 X0=1e-05

Redirect LineCodes.dss
Redirect p13uhs0_1247--p13udt13213/LineCodes.dss
Redirect p13uhs0_1247--p13udt13219/LineCodes.dss
Redirect p13uhs0_1247--p13udt15681/LineCodes.dss
Redirect p13uhs0_1247--p13udt18158/LineCodes.dss
Redirect Lines.dss
Redirect p13uhs0_1247--p13udt13213/Lines.dss
Redirect p13uhs0_1247--p13udt13219/Lines.dss
Redirect p13uhs0_1247--p13udt15681/Lines.dss
Redirect p13uhs0_1247--p13udt18158/Lines.dss
Redirect Transformers.dss
Redirect p13uhs0_1247--p13udt13213/Transformers.dss
Redirect p13uhs0_1247--p13udt13219/Transformers.dss
Redirect p13uhs0_1247--p13udt15681/Transformers.dss
Redirect p13uhs0_1247--p13udt18158/Transformers.dss
Redirect Regulators.dss
Redirect LoadShapes.dss
Redirect p13uhs0_1247--p13udt13213/Loads.dss
Redirect p13uhs0_1247--p13udt13219/Loads.dss
Redirect p13uhs0_1247--p13udt15681/Loads.dss
Redirect p13uhs0_1247--p13udt18158/Loads.dss
Redirect p13uhs0_1247--p13udt13213/Capacitors.dss
Redirect p13uhs0_1247--p13udt13219/Capacitors.dss
Redirect p13uhs0_1247--p13udt18158/Capacitors.dss
Redirect p13uhs0_1247--p13udt13213/Storage.dss
Redirect p13uhs0_1247--p13udt13219/Storage.dss
Redirect p13uhs0_1247--p13udt15681/Storage.dss
Redirect p13uhs0_1247--p13udt18158/Storage.dss
Redirect p13uhs0_1247--p13udt13213/PVSystems.dss
Redirect p13uhs0_1247--p13udt13219/PVSystems.dss
Redirect p13uhs0_1247--p13udt15681/PVSystems.dss
Redirect p13uhs0_1247--p13udt18158/PVSystems.dss

Set Voltagebases=[0.12, 0.208, 0.24, 0.48, 7.2, 12.47, 69.0]

Calcvoltagebases

Buscoords Buscoords.dss
set maxcontroliter=50

Solve mode=yearly stepsize=15m number=35040
