data/shbh_evnc_2/p13u/p13uhs0_1247/DSSfiles/p13uhs0_1247--p13udt13213/Lines.dss
New Line.l(r:p13udt770lv-p13ulv38995) Units=km Length=0.014774100000000002 bus1=p13udt770lv.1.2 bus2=p13ulv38995.1.2 switch=n enabled=y phases=2 Linecode=1P_UG_AL_1/0_Brenau_2

New Line.l(r:p13udm3170-p13ulv2241) Units=km Length=0.011015 bus1=p13udm3170.1.2 bus2=p13ulv2241.1.2 switch=n enabled=y phases=2 Linecode=1P_UG_AL_4/0_Sweetbriar_2

New Line.l(r:p13udm3170-p13ulv39014) Units=km Length=0.0358575 bus1=p13udm3170.1.2 bus2=p13ulv39014.1.2 switch=n enabled=y phases=2 Linecode=1P_UG_AL_1/0_Brenau_2

New Line.l(r:p13udm3170-p13udt770lv) Units=km Length=0.00936426 bus1=p13udt770lv.1.2 bus2=p13udm3170.1.2 switch=n enabled=y phases=2 Linecode=1P_UG_AL_4/0_Sweetbriar_2

New Line.l(r:p13udt771lv-p13ulv38961) Units=km Length=0.00967481 bus1=p13udt771lv.1.2 bus2=p13ulv38961.1.2 switch=n enabled=y phases=2 Linecode=1P_UG_AL_1/0_Brenau_2

New Line.l(r:p13udm3173-p13ulv2243) Units=km Length=0.00930658 bus1=p13udm3173.1.2 bus2=p13ulv2243.1.2 switch=n enabled=y phases=2 Linecode=1P_UG_AL_4/0_Sweetbriar_2

New Line.l(r:p13udm3173-p13udt771lv) Units=km Length=0.00891871 bus1=p13udt771lv.1.2 bus2=p13udm3173.1.2 switch=n enabled=y phases=2 Linecode=1P_UG_AL_4/0_Sweetbriar_2

New Line.l(r:p13udt772lv-p13ulv38964) Units=km Length=0.0151518 bus1=p13udt772lv.1.2 bus2=p13ulv38964.1.2 switch=n enabled=y phases=2 Linecode=1P_UG_AL_2/0_Converse_2

New Line.l(r:p13udt772lv-p13ulv39001) Units=km Length=0.0145526 bus1=p13udt772lv.1.2 bus2=p13ulv39001.1.2 switch=n enabled=y phases=2 Linecode=1P_UG_AL_2/0_Converse_2

New Line.l(r:p13udm3175-p13ulv2244) Units=km Length=0.014576600000000002 bus1=p13udm3175.1.2 bus2=p13ulv2244.1.2 switch=n enabled=y phases=2 Linecode=1P_UG_AL_1/0_Brenau_2

New Line.l(r:p13udm3175-p13ulv39000) Units=km Length=0.011122200000000002 bus1=p13udm3175.1.2 bus2=p13ulv39000.1.2 switch=n enabled=y phases=2 Linecode=1P_UG_AL_1/0_Brenau_2

New Line.l(r:p13udm3175-p13udt772lv) Units=km Length=0.00989518 bus1=p13udt772lv.1.2 bus2=p13udm3175.1.2 switch=n enabled=y phases=2 Linecode=1P_UG_AL_4/0_Sweetbriar_2

New Line.l(r:p13udt786lv-p13ulv2266) Units=km Length=0.0124789 bus1=p13udt786lv.1.2 bus2=p13ulv2266.1.2 switch=n enabled=y phases=2 Linecode=1P_UG_AL_1/0_Brenau_2

New Line.l(r:p13udt786lv-p13ulv37695) Units=km Length=0.013073000000000001 bus1=p13udt786lv.1.2 bus2=p13ulv37695.1.2 switch=n enabled=y phases=2 Linecode=1P_UG_AL_1/0_Brenau_2

New Line.l(r:p13udm3214-p13ulv2267) Units=km Length=0.0146564 bus1=p13udm3214.1.2 bus2=p13ulv2267.1.2 switch=n enabled=y phases=2 Linecode=1P_UG_AL_1/0_Brenau_2

New Line.l(r:p13udm3214-p13udt786lv) Units=km Length=0.00955356 bus1=p13udt786lv.1.2 bus2=p13udm3214.1.2 switch=n enabled=y phases=2 Linecode=1P_UG_AL_1/0_Brenau_2

New Line.l(r:p13udm3217-p13ulv37707) Units=km Length=0.0123424 bus1=p13udm3217.1.2 bus2=p13ulv37707.1.2 switch=n enabled=y phases=2 Linecode=1P_UG_AL_1/0_Brenau_2

New Line.l(r:p13udm3217-p13ulv39010) Units=km Length=0.0128668 bus1=p13udm3217.1.2 bus2=p13ulv39010.1.2 switch=n enabled=y phases=2 Linecode=1P_UG_AL_1/0_Brenau_2

New Line.l(r:p13udm3216-p13ulv37706) Units=km Length=0.00846529 bus1=p13udm3216.1.2 bus2=p13ulv37706.1.2 switch=n enabled=y phases=2 Linecode=1P_UG_AL_1/0_Brenau_2

New Line.l(r:p13udm3216-p13udm3217) Units=km Length=0.00955356 bus1=p13udm3217.1.2 bus2=p13udm3216.1.2 switch=n enabled=y phases=2 Linecode=1P_UG_AL_1/0_Brenau_2

New Line.l(r:p13udm3217-p13udt786lv) Units=km Length=0.00956169 bus1=p13udt786lv.1.2 bus2=p13udm3217.1.2 switch=n enabled=y phases=2 Linecode=1P_UG_AL_4/0_Sweetbriar_2

New Line.l(r:p13udt787lv-p13ulv2269) Units=km Length=0.0113016 bus1=p13udt787lv.1.2 bus2=p13ulv2269.1.2 switch=n enabled=y phases=2 Linecode=1P_UG_AL_1/0_Brenau_2

New Line.l(r:p13udm3219-p13ulv2268) Units=km Length=0.0121948 bus1=p13udm3219.1.2 bus2=p13ulv2268.1.2 switch=n enabled=y phases=2 Linecode=1P_UG_AL_1/0_Brenau_2

New Line.l(r:p13udm3219-p13udt787lv) Units=km Length=0.00956169 bus1=p13udt787lv.1.2 bus2=p13udm3219.1.2 switch=n enabled=y phases=2 Linecode=1P_UG_AL_1/0_Brenau_2

New Line.l(r:p13udm3222-p13ulv37701) Units=km Length=0.0105775 bus1=p13udm3222.1.2 bus2=p13ulv37701.1.2 switch=n enabled=y phases=2 Linecode=1P_UG_AL_1/0_Brenau_2

New Line.l(r:p13udm3221-p13ulv2270) Units=km Length=0.0172004 bus1=p13udm3221.1.2 bus2=p13ulv2270.1.2 switch=n enabled=y phases=2 Linecode=1P_OH_AL_2/0_Rucina_2

New Line.l(r:p13udm3221-p13udm3222) Units=km Length=0.0459914 bus1=p13udm3222.1.2 bus2=p13udm3221.1.2 switch=n enabled=y phases=2 Linecode=1P_OH_AL_4/0_Zuzara_2

New Line.l(r:p13udm3222-p13udt787lv) Units=km Length=0.008843360000000001 bus1=p13udt787lv.1.2 bus2=p13udm3222.1.2 switch=n enabled=y phases=2 Linecode=1P_UG_AL_2/0_Converse_2

New Line.l(r:p13udt788lv-p13ulv2271) Units=km Length=0.0153147 bus1=p13udt788lv.1.2 bus2=p13ulv2271.1.2 switch=n enabled=y phases=2 Linecode=1P_OH_AL_2/0_Rucina_2

New Line.l(r:p13udt789lv-p13ulv2273) Units=km Length=0.0302699 bus1=p13udt789lv.1.2 bus2=p13ulv2273.1.2 switch=n enabled=y phases=2 Linecode=1P_UG_AL_1/0_Brenau_2

New Line.l(r:p13udt789lv-p13ulv38974) Units=km Length=0.0194117 bus1=p13udt789lv.1.2 bus2=p13ulv38974.1.2 switch=n enabled=y phases=2 Linecode=1P_UG_AL_1/0_Brenau_2

New Line.l(r:p13udm3224-p13ulv2272) Units=km Length=0.0102883 bus1=p13udm3224.1.2 bus2=p13ulv2272.1.2 switch=n enabled=y phases=2 Linecode=1P_UG_AL_1/0_Brenau_2

New Line.l(r:p13udm3224-p13ulv38988) Units=km Length=0.0126746 bus1=p13udm3224.1.2 bus2=p13ulv38988.1.2 switch=n enabled=y phases=2 Linecode=1P_UG_AL_1/0_Brenau_2

New Line.l(r:p13udm3224-p13udt789lv) Units=km Length=0.00937681 bus1=p13udt789lv.1.2 bus2=p13udm3224.1.2 switch=n enabled=y phases=2 Linecode=1P_UG_AL_1/0_Brenau_2

New Line.l(r:p13udm3227-p13ulv38971) Units=km Length=0.0139154 bus1=p13udm3227.1.2 bus2=p13ulv38971.1.2 switch=n enabled=y phases=2 Linecode=1P_UG_AL_1/0_Brenau_2

New Line.l(r:p13udm3226-p13ulv38965) Units=km Length=0.0262595 bus1=p13udm3226.1.2 bus2=p13ulv38965.1.2 switch=n enabled=y phases=2 Linecode=1P_UG_AL_1/0_Brenau_2

New Line.l(r:p13udm3226-p13udm3227) Units=km Length=0.00937681 bus1=p13udm3227.1.2 bus2=p13udm3226.1.2 switch=n enabled=y phases=2 Linecode=1P_UG_AL_1/0_Brenau_2

New Line.l(r:p13udm3227-p13udt789lv) Units=km Length=0.00937593 bus1=p13udt789lv.1.2 bus2=p13udm3227.1.2 switch=n enabled=y phases=2 Linecode=1P_UG_AL_4/0_Sweetbriar_2

New Line.l(r:p13udm3243-p13ulv2281) Units=km Length=0.0137671 bus1=p13udm3243.1.2 bus2=p13ulv2281.1.2 switch=n enabled=y phases=2 Linecode=1P_UG_AL_1/0_Brenau_2

New Line.l(r:p13udm3243-p13ulv38970) Units=km Length=0.0132805 bus1=p13udm3243.1.2 bus2=p13ulv38970.1.2 switch=n enabled=y phases=2 Linecode=1P_UG_AL_1/0_Brenau_2

New Line.l(r:p13udm3243-p13udt792lv) Units=km Length=0.0477659 bus1=p13udt792lv.1.2 bus2=p13udm3243.1.2 switch=n enabled=y phases=2 Linecode=1P_UG_AL_4/0_Sweetbriar_2

New Line.l(r:p13udm3247-p13ulv39007) Units=km Length=0.0133708 bus1=p13udm3247.1.2 bus2=p13ulv39007.1.2 switch=n enabled=y phases=2 Linecode=1P_UG_AL_1/0_Brenau_2

New Line.l(r:p13udm3247-p13ulv39015) Units=km Length=0.014815300000000002 bus1=p13udm3247.1.2 bus2=p13ulv39015.1.2 switch=n enabled=y phases=2 Linecode=1P_UG_AL_1/0_Brenau_2

New Line.l(r:p13udm3244-p13ulv37674) Units=km Length=0.0333757 bus1=p13udm3244.1.2 bus2=p13ulv37674.1.2 switch=n enabled=y phases=2 Linecode=1P_UG_AL_1/0_Brenau_2

New Line.l(r:p13udm3242-p13ulv2276) Units=km Length=0.0135201 bus1=p13udm3242.1.2 bus2=p13ulv2276.1.2 switch=n enabled=y phases=2 Linecode=1P_UG_AL_1/0_Brenau_2

New Line.l(r:p13udm3242-p13ulv37681) Units=km Length=0.012694 bus1=p13udm3242.1.2 bus2=p13ulv37681.1.2 switch=n enabled=y phases=2 Linecode=1P_UG_AL_1/0_Brenau_2

New Line.l(r:p13udm3242-p13udm3244) Units=km Length=0.009550630000000001 bus1=p13udm3244.1.2 bus2=p13udm3242.1.2 switch=n enabled=y phases=2 Linecode=1P_UG_AL_4/0_Sweetbriar_2

New Line.l(r:p13udm3244-p13udm3247) Units=km Length=0.00955155 bus1=p13udm3247.1.2 bus2=p13udm3244.1.2 switch=n enabled=y phases=2 Linecode=1P_UG_AL_4/0_Sweetbriar_2

New Line.l(r:p13udm3247-p13udt792lv) Units=km Length=0.009550630000000001 bus1=p13udt792lv.1.2 bus2=p13udm3247.1.2 switch=n enabled=y phases=2 Linecode=1P_UG_AL_4/0_Sweetbriar_2

New Line.l(r:p13udt793lv-p13ulv2277) Units=km Length=0.014311 bus1=p13udt793lv.1.2 bus2=p13ulv2277.1.2 switch=n enabled=y phases=2 Linecode=1P_UG_AL_1/0_Brenau_2

New Line.l(r:p13udm3250-p13ulv2278) Units=km Length=0.0156272 bus1=p13udm3250.1.2 bus2=p13ulv2278.1.2 switch=n enabled=y phases=2 Linecode=1P_UG_AL_1/0_Brenau_2

New Line.l(r:p13udm3252-p13ulv38996) Units=km Length=0.0168576 bus1=p13udm3252.1.2 bus2=p13ulv38996.1.2 switch=n enabled=y phases=2 Linecode=1P_UG_AL_1/0_Brenau_2

New Line.l(r:p13udm3252-p13ulv39004) Units=km Length=0.0150234 bus1=p13udm3252.1.2 bus2=p13ulv39004.1.2 switch=n enabled=y phases=2 Linecode=1P_UG_AL_1/0_Brenau_2

New Line.l(r:p13udm3250-p13udm3252) Units=km Length=0.00956151 bus1=p13udm3250.1.2 bus2=p13udm3252.1.2 switch=n enabled=y phases=2 Linecode=1P_UG_AL_2/0_Converse_2

New Line.l(r:p13udm3250-p13udt793lv) Units=km Length=0.009550630000000001 bus1=p13udt793lv.1.2 bus2=p13udm3250.1.2 switch=n enabled=y phases=2 Linecode=1P_UG_AL_4/0_Sweetbriar_2

New Line.l(r:p13udm3251-p13ulv38948) Units=km Length=0.0136587 bus1=p13udm3251.1.2 bus2=p13ulv38948.1.2 switch=n enabled=y phases=2 Linecode=1P_UG_AL_1/0_Brenau_2

New Line.l(r:p13udm3251-p13udt793lv) Units=km Length=0.0573174 bus1=p13udt793lv.1.2 bus2=p13udm3251.1.2 switch=n enabled=y phases=2 Linecode=1P_UG_AL_1/0_Brenau_2

New Line.l(r:p13udt794lv-p13ulv2352) Units=km Length=0.0146625 bus1=p13udt794lv.1.2 bus2=p13ulv2352.1.2 switch=n enabled=y phases=2 Linecode=1P_UG_AL_1/0_Brenau_2

New Line.l(r:p13udm3255-p13ulv2351) Units=km Length=0.0149547 bus1=p13udm3255.1.2 bus2=p13ulv2351.1.2 switch=n enabled=y phases=2 Linecode=1P_UG_AL_1/0_Brenau_2

New Line.l(r:p13udm3255-p13ulv38954) Units=km Length=0.0141612 bus1=p13udm3255.1.2 bus2=p13ulv38954.1.2 switch=n enabled=y phases=2 Linecode=1P_UG_AL_4/0_Sweetbriar_2

New Line.l(r:p13udm3254-p13ulv2279) Units=km Length=0.030822200000000004 bus1=p13udm3254.1.2 bus2=p13ulv2279.1.2 switch=n enabled=y phases=2 Linecode=1P_UG_AL_1/0_Brenau_2

New Line.l(r:p13udm3254-p13ulv2354) Units=km Length=0.015179500000000002 bus1=p13udm3254.1.2 bus2=p13ulv2354.1.2 switch=n enabled=y phases=2 Linecode=1P_UG_AL_1/0_Brenau_2

New Line.l(r:p13udm3254-p13udm3255) Units=km Length=0.00974713 bus1=p13udm3255.1.2 bus2=p13udm3254.1.2 switch=n enabled=y phases=2 Linecode=1P_UG_AL_1/0_Brenau_2

New Line.l(r:p13udm3255-p13udt794lv) Units=km Length=0.00974627 bus1=p13udt794lv.1.2 bus2=p13udm3255.1.2 switch=n enabled=y phases=2 Linecode=1P_UG_AL_4/0_Sweetbriar_2

New Line.l(r:p13udm3260-p13ulv39769) Units=km Length=0.00990721 bus1=p13udm3260.1.2 bus2=p13ulv39769.1.2 switch=n enabled=y phases=2 Linecode=1P_UG_AL_1/0_Brenau_2

New Line.l(r:p13udm3259-p13ulv39768) Units=km Length=0.0110983 bus1=p13udm3259.1.2 bus2=p13ulv39768.1.2 switch=n enabled=y phases=2 Linecode=1P_UG_AL_1/0_Brenau_2

New Line.l(r:p13udm3259-p13udm3260) Units=km Length=0.00926717 bus1=p13udm3260.1.2 bus2=p13udm3259.1.2 switch=n enabled=y phases=2 Linecode=1P_UG_AL_1/0_Brenau_2

New Line.l(r:p13udm3260-p13udt794lv) Units=km Length=0.050820000000000004 bus1=p13udt794lv.1.2 bus2=p13udm3260.1.2 switch=n enabled=y phases=2 Linecode=1P_UG_AL_1/0_Brenau_2

New Line.l(r:p13udt795lv-p13ulv38953) Units=km Length=0.0266762 bus1=p13udt795lv.1.2 bus2=p13ulv38953.1.2 switch=n enabled=y phases=2 Linecode=1P_UG_AL_2/0_Converse_2

New Line.l(r:p13udm3261-p13ulv2280) Units=km Length=0.0140275 bus1=p13udm3261.1.2 bus2=p13ulv2280.1.2 switch=n enabled=y phases=2 Linecode=1P_UG_AL_1/0_Brenau_2

New Line.l(r:p13udm3261-p13ulv38960) Units=km Length=0.0140523 bus1=p13udm3261.1.2 bus2=p13ulv38960.1.2 switch=n enabled=y phases=2 Linecode=1P_UG_AL_1/0_Brenau_2

New Line.l(r:p13udm3261-p13udt795lv) Units=km Length=0.009550630000000001 bus1=p13udt795lv.1.2 bus2=p13udm3261.1.2 switch=n enabled=y phases=2 Linecode=1P_UG_AL_2/0_Converse_2

New Line.l(r:p13udm3262-p13ulv38943) Units=km Length=0.0373837 bus1=p13udm3262.1.2 bus2=p13ulv38943.1.2 switch=n enabled=y phases=2 Linecode=1P_UG_AL_1/0_Brenau_2

New Line.l(r:p13udm3262-p13udt795lv) Units=km Length=0.00956151 bus1=p13udt795lv.1.2 bus2=p13udm3262.1.2 switch=n enabled=y phases=2 Linecode=1P_UG_AL_1/0_Brenau_2

New Line.l(r:p13udt796lv-p13ulv38975) Units=km Length=0.0131234 bus1=p13udt796lv.1.2 bus2=p13ulv38975.1.2 switch=n enabled=y phases=2 Linecode=1P_UG_AL_1/0_Brenau_2

New Line.l(r:p13udt796lv-p13ulv38977) Units=km Length=0.0146989 bus1=p13udt796lv.1.2 bus2=p13ulv38977.1.2 switch=n enabled=y phases=2 Linecode=1P_UG_AL_1/0_Brenau_2

New Line.l(r:p13udm3265-p13ulv2282) Units=km Length=0.0131804 bus1=p13udm3265.1.2 bus2=p13ulv2282.1.2 switch=n enabled=y phases=2 Linecode=1P_UG_AL_1/0_Brenau_2

New Line.l(r:p13udm3265-p13udt796lv) Units=km Length=0.00955155 bus1=p13udt796lv.1.2 bus2=p13udm3265.1.2 switch=n enabled=y phases=2 Linecode=1P_UG_AL_1/0_Brenau_2

New Line.l(r:p13udm3268-p13ulv38990) Units=km Length=0.0251014 bus1=p13udm3268.1.2 bus2=p13ulv38990.1.2 switch=n enabled=y phases=2 Linecode=1P_UG_AL_1/0_Brenau_2

New Line.l(r:p13udm3268-p13udt796lv) Units=km Length=0.00955155 bus1=p13udt796lv.1.2 bus2=p13udm3268.1.2 switch=n enabled=y phases=2 Linecode=1P_UG_AL_1/0_Brenau_2

New Line.l(r:p13udt818lv-p13ulv2316) Units=km Length=0.0135554 bus1=p13udt818lv.1.2 bus2=p13ulv2316.1.2 switch=n enabled=y phases=2 Linecode=1P_UG_AL_1/0_Brenau_2

New Line.l(r:p13udt818lv-p13ulv37762) Units=km Length=0.014004 bus1=p13udt818lv.1.2 bus2=p13ulv37762.1.2 switch=n enabled=y phases=2 Linecode=1P_UG_AL_1/0_Brenau_2

New Line.l(r:p13udm3370-p13ulv37747) Units=km Length=0.0132518 bus1=p13udm3370.1.2 bus2=p13ulv37747.1.2 switch=n enabled=y phases=2 Linecode=1P_UG_AL_1/0_Brenau_2

New Line.l(r:p13udm3370-p13udt818lv) Units=km Length=0.0194263 bus1=p13udt818lv.1.2 bus2=p13udm3370.1.2 switch=n enabled=y phases=2 Linecode=1P_UG_AL_1/0_Brenau_2

New Line.l(r:p13udt819lv-p13ulv2319) Units=km Length=0.0128526 bus1=p13udt819lv.1.2 bus2=p13ulv2319.1.2 switch=n enabled=y phases=2 Linecode=1P_UG_AL_1/0_Brenau_2

New Line.l(r:p13udt819lv-p13ulv37739) Units=km Length=0.0137854 bus1=p13udt819lv.1.2 bus2=p13ulv37739.1.2 switch=n enabled=y phases=2 Linecode=1P_UG_AL_1/0_Brenau_2

New Line.l(r:p13udm3373-p13ulv2318) Units=km Length=0.0112671 bus1=p13udm3373.1.2 bus2=p13ulv2318.1.2 switch=n enabled=y phases=2 Linecode=1P_UG_AL_1/0_Brenau_2

New Line.l(r:p13udm3372-p13ulv2317) Units=km Length=0.013097100000000002 bus1=p13udm3372.1.2 bus2=p13ulv2317.1.2 switch=n enabled=y phases=2 Linecode=1P_UG_AL_1/0_Brenau_2

New Line.l(r:p13udm3372-p13ulv37755) Units=km Length=0.0133855 bus1=p13udm3372.1.2 bus2=p13ulv37755.1.2 switch=n enabled=y phases=2 Linecode=1P_UG_AL_1/0_Brenau_2

New Line.l(r:p13udm3372-p13udm3373) Units=km Length=0.00971813 bus1=p13udm3373.1.2 bus2=p13udm3372.1.2 switch=n enabled=y phases=2 Linecode=1P_UG_AL_2/0_Converse_2

New Line.l(r:p13udm3373-p13udt819lv) Units=km Length=0.00971725 bus1=p13udt819lv.1.2 bus2=p13udm3373.1.2 switch=n enabled=y phases=2 Linecode=1P_UG_AL_4/0_Sweetbriar_2

New Line.l(r:p13udm3376-p13ulv37728) Units=km Length=0.0122068 bus1=p13udm3376.1.2 bus2=p13ulv37728.1.2 switch=n enabled=y phases=2 Linecode=1P_UG_AL_1/0_Brenau_2

New Line.l(r:p13udm3375-p13ulv37720) Units=km Length=0.012262 bus1=p13udm3375.1.2 bus2=p13ulv37720.1.2 switch=n enabled=y phases=2 Linecode=1P_UG_AL_1/0_Brenau_2

New Line.l(r:p13udm3375-p13udm3376) Units=km Length=0.00970817 bus1=p13udm3376.1.2 bus2=p13udm3375.1.2 switch=n enabled=y phases=2 Linecode=1P_UG_AL_1/0_Brenau_2

New Line.l(r:p13udm3376-p13udt819lv) Units=km Length=0.00971813 bus1=p13udt819lv.1.2 bus2=p13udm3376.1.2 switch=n enabled=y phases=2 Linecode=1P_UG_AL_4/0_Sweetbriar_2

New Line.l(r:p13udt820lv-p13ulv2320) Units=km Length=0.012243 bus1=p13udt820lv.1.2 bus2=p13ulv2320.1.2 switch=n enabled=y phases=2 Linecode=1P_UG_AL_1/0_Brenau_2

New Line.l(r:p13udt820lv-p13ulv37678) Units=km Length=0.0114867 bus1=p13udt820lv.1.2 bus2=p13ulv37678.1.2 switch=n enabled=y phases=2 Linecode=1P_UG_AL_1/0_Brenau_2

New Line.l(r:p13udm3381-p13ulv37683) Units=km Length=0.0102401 bus1=p13udm3381.1.2 bus2=p13ulv37683.1.2 switch=n enabled=y phases=2 Linecode=1P_UG_AL_1/0_Brenau_2

New Line.l(r:p13udm3383-p13ulv37716) Units=km Length=0.00945596 bus1=p13udm3383.1.2 bus2=p13ulv37716.1.2 switch=n enabled=y phases=2 Linecode=1P_UG_AL_1/0_Brenau_2

New Line.l(r:p13udm3381-p13udm3383) Units=km Length=0.009191630000000001 bus1=p13udm3381.1.2 bus2=p13udm3383.1.2 switch=n enabled=y phases=2 Linecode=1P_UG_AL_1/0_Brenau_2

New Line.l(r:p13udm3381-p13udt820lv) Units=km Length=0.009191630000000001 bus1=p13udt820lv.1.2 bus2=p13udm3381.1.2 switch=n enabled=y phases=2 Linecode=1P_UG_AL_1/0_Brenau_2

New Line.l(r:p13udm3382-p13ulv37684) Units=km Length=0.0117498 bus1=p13udm3382.1.2 bus2=p13ulv37684.1.2 switch=n enabled=y phases=2 Linecode=1P_UG_AL_1/0_Brenau_2

New Line.l(r:p13udm3384-p13ulv37722) Units=km Length=0.0108113 bus1=p13udm3384.1.2 bus2=p13ulv37722.1.2 switch=n enabled=y phases=2 Linecode=1P_UG_AL_1/0_Brenau_2

New Line.l(r:p13udm3382-p13udm3384) Units=km Length=0.009191630000000001 bus1=p13udm3382.1.2 bus2=p13udm3384.1.2 switch=n enabled=y phases=2 Linecode=1P_UG_AL_1/0_Brenau_2

New Line.l(r:p13udm3382-p13udt820lv) Units=km Length=0.00919332 bus1=p13udt820lv.1.2 bus2=p13udm3382.1.2 switch=n enabled=y phases=2 Linecode=1P_UG_AL_2/0_Converse_2

New Line.l(r:p13udt822lv-p13ulv38924) Units=km Length=0.0136229 bus1=p13udt822lv.1.2 bus2=p13ulv38924.1.2 switch=n enabled=y phases=2 Linecode=1P_UG_AL_1/0_Brenau_2

New Line.l(r:p13udm3389-p13ulv2322) Units=km Length=0.0141659 bus1=p13udm3389.1.2 bus2=p13ulv2322.1.2 switch=n enabled=y phases=2 Linecode=1P_UG_AL_1/0_Brenau_2

New Line.l(r:p13udm3389-p13ulv38949) Units=km Length=0.0121044 bus1=p13udm3389.1.2 bus2=p13ulv38949.1.2 switch=n enabled=y phases=2 Linecode=1P_UG_AL_4/0_Sweetbriar_2

New Line.l(r:p13udm3389-p13udt822lv) Units=km Length=0.00974979 bus1=p13udt822lv.1.2 bus2=p13udm3389.1.2 switch=n enabled=y phases=2 Linecode=1P_UG_AL_4/0_Sweetbriar_2

New Line.l(r:p13udt823lv-p13ulv38963) Units=km Length=0.0174806 bus1=p13udt823lv.1.2 bus2=p13ulv38963.1.2 switch=n enabled=y phases=2 Linecode=1P_UG_AL_1/0_Brenau_2

New Line.l(r:p13udm3392-p13ulv2323) Units=km Length=0.0132929 bus1=p13udm3392.1.2 bus2=p13ulv2323.1.2 switch=n enabled=y phases=2 Linecode=1P_UG_AL_2/0_Converse_2

New Line.l(r:p13udm3392-p13ulv38958) Units=km Length=0.0149528 bus1=p13udm3392.1.2 bus2=p13ulv38958.1.2 switch=n enabled=y phases=2 Linecode=1P_UG_AL_1/0_Brenau_2

New Line.l(r:p13udm3392-p13udt823lv) Units=km Length=0.009750700000000001 bus1=p13udt823lv.1.2 bus2=p13udm3392.1.2 switch=n enabled=y phases=2 Linecode=1P_UG_AL_4/0_Sweetbriar_2

New Line.l(r:p13udm3395-p13ulv38980) Units=km Length=0.014907200000000002 bus1=p13udm3395.1.2 bus2=p13ulv38980.1.2 switch=n enabled=y phases=2 Linecode=1P_UG_AL_2/0_Converse_2

New Line.l(r:p13udm3395-p13udt823lv) Units=km Length=0.0195095 bus1=p13udt823lv.1.2 bus2=p13udm3395.1.2 switch=n enabled=y phases=2 Linecode=1P_UG_AL_2/0_Converse_2

New Line.l(r:p13udt837lv-p13ulv2353) Units=km Length=0.0125028 bus1=p13udt837lv.1.2 bus2=p13ulv2353.1.2 switch=n enabled=y phases=2 Linecode=1P_UG_AL_1/0_Brenau_2

New Line.l(r:p13udt837lv-p13ulv38941) Units=km Length=0.0121699 bus1=p13udt837lv.1.2 bus2=p13ulv38941.1.2 switch=n enabled=y phases=2 Linecode=1P_UG_AL_1/0_Brenau_2

New Line.l(r:p13udt837lv-p13ulv39782) Units=km Length=0.0117386 bus1=p13udt837lv.1.2 bus2=p13ulv39782.1.2 switch=n enabled=y phases=2 Linecode=1P_UG_AL_1/0_Brenau_2

New Line.l(r:p13udm3468-p13ulv38950) Units=km Length=0.013636100000000002 bus1=p13udm3468.1.2 bus2=p13ulv38950.1.2 switch=n enabled=y phases=2 Linecode=1P_UG_AL_1/0_Brenau_2

New Line.l(r:p13udm3468-p13udt837lv) Units=km Length=0.00975709 bus1=p13udt837lv.1.2 bus2=p13udm3468.1.2 switch=n enabled=y phases=2 Linecode=1P_UG_AL_1/0_Brenau_2

New Line.l(r:p13udt904lv-p13ulv46462) Units=km Length=0.022615800000000002 bus1=p13udt904lv.1.2 bus2=p13ulv46462.1.2 switch=n enabled=y phases=2 Linecode=1P_OH_AL_2/0_Rucina_2

New Line.l(r:p13udm3840-p13ulv2591) Units=km Length=0.0146878 bus1=p13udm3840.1.2 bus2=p13ulv2591.1.2 switch=n enabled=y phases=2 Linecode=1P_OH_AL_2/0_Rucina_2

New Line.l(r:p13udm3840-p13udt904lv) Units=km Length=0.061012 bus1=p13udt904lv.1.2 bus2=p13udm3840.1.2 switch=n enabled=y phases=2 Linecode=1P_OH_AL_4/0_Zuzara_2

New Line.l(r:p13udm3843-p13ulv3229) Units=km Length=0.0112512 bus1=p13udm3843.1.2 bus2=p13ulv3229.1.2 switch=n enabled=y phases=2 Linecode=1P_OH_AL_2/0_Rucina_2

New Line.l(r:p13udm3842-p13ulv2592) Units=km Length=0.00897094 bus1=p13udm3842.1.2 bus2=p13ulv2592.1.2 switch=n enabled=y phases=2 Linecode=1P_OH_AL_2/0_Rucina_2

New Line.l(r:p13udm3842-p13udm3843) Units=km Length=0.011820300000000002 bus1=p13udm3843.1.2 bus2=p13udm3842.1.2 switch=n enabled=y phases=2 Linecode=1P_OH_AL_2/0_Rucina_2

New Line.l(r:p13udm3843-p13udt905lv) Units=km Length=0.0170271 bus1=p13udt905lv.1.2 bus2=p13udm3843.1.2 switch=n enabled=y phases=2 Linecode=1P_OH_AL_2/0_Rucina_2

New Line.l(r:p13udm3844-p13ulv42219) Units=km Length=0.0193483 bus1=p13udm3844.1.2 bus2=p13ulv42219.1.2 switch=n enabled=y phases=2 Linecode=1P_UG_AL_1/0_Brenau_2

New Line.l(r:p13udm3844-p13udt905lv) Units=km Length=0.0558014 bus1=p13udt905lv.1.2 bus2=p13udm3844.1.2 switch=n enabled=y phases=2 Linecode=1P_OH_AL_4/0_Zuzara_2

New Line.l(r:p13udt907lv-p13ulv44986) Units=km Length=0.00932481 bus1=p13udt907lv.1.2 bus2=p13ulv44986.1.2 switch=n enabled=y phases=2 Linecode=1P_OH_AL_2/0_Rucina_2

New Line.l(r:p13udm3847-p13ulv2594) Units=km Length=0.00838601 bus1=p13udm3847.1.2 bus2=p13ulv2594.1.2 switch=n enabled=y phases=2 Linecode=1P_UG_AL_4/0_Sweetbriar_2

New Line.l(r:p13udm3847-p13udt907lv) Units=km Length=0.052444 bus1=p13udt907lv.1.2 bus2=p13udm3847.1.2 switch=n enabled=y phases=2 Linecode=1P_OH_AL_4/0_Zuzara_2

New Line.l(r:p13udm3849-p13ulv44988) Units=km Length=0.00904615 bus1=p13udm3849.1.2 bus2=p13ulv44988.1.2 switch=n enabled=y phases=2 Linecode=1P_OH_AL_2/0_Rucina_2

New Line.l(r:p13udm3850-p13ulv44992) Units=km Length=0.013524300000000001 bus1=p13udm3850.1.2 bus2=p13ulv44992.1.2 switch=n enabled=y phases=2 Linecode=1P_OH_AL_2/0_Rucina_2

New Line.l(r:p13udm3850-p13ulv44996) Units=km Length=0.0215752 bus1=p13udm3850.1.2 bus2=p13ulv44996.1.2 switch=n enabled=y phases=2 Linecode=1P_OH_AL_2/0_Rucina_2

New Line.l(r:p13udm3849-p13udm3850) Units=km Length=0.0157664 bus1=p13udm3849.1.2 bus2=p13udm3850.1.2 switch=n enabled=y phases=2 Linecode=1P_OH_AL_2/0_Rucina_2

New Line.l(r:p13udm3849-p13udt907lv) Units=km Length=0.0148535 bus1=p13udt907lv.1.2 bus2=p13udm3849.1.2 switch=n enabled=y phases=2 Linecode=1P_OH_AL_2/0_Rucina_2

New Line.l(r:p13udm3851-p13ulv44995) Units=km Length=0.00927785 bus1=p13udm3851.1.2 bus2=p13ulv44995.1.2 switch=n enabled=y phases=2 Linecode=1P_UG_AL_1/0_Brenau_2

New Line.l(r:p13udm3851-p13udt907lv) Units=km Length=0.0439898 bus1=p13udt907lv.1.2 bus2=p13udm3851.1.2 switch=n enabled=y phases=2 Linecode=1P_OH_AL_4/0_Zuzara_2

New Line.l(r:p13udt908lv-p13ulv44969) Units=km Length=0.038271400000000004 bus1=p13udt908lv.1.2 bus2=p13ulv44969.1.2 switch=n enabled=y phases=2 Linecode=1P_UG_AL_1/0_Brenau_2

New Line.l(r:p13udt908lv-p13ulv44970) Units=km Length=0.00465568 bus1=p13udt908lv.1.2 bus2=p13ulv44970.1.2 switch=n enabled=y phases=2 Linecode=1P_UG_AL_1/0_Brenau_2

New Line.l(r:p13udt908lv-p13ulv44974) Units=km Length=0.0105093 bus1=p13udt908lv.1.2 bus2=p13ulv44974.1.2 switch=n enabled=y phases=2 Linecode=1P_UG_AL_1/0_Brenau_2

New Line.l(r:p13udm3853-p13ulv2595) Units=km Length=0.00793804 bus1=p13udm3853.1.2 bus2=p13ulv2595.1.2 switch=n enabled=y phases=2 Linecode=1P_UG_AL_1/0_Brenau_2

New Line.l(r:p13udm3853-p13udt908lv) Units=km Length=0.00654664 bus1=p13udt908lv.1.2 bus2=p13udm3853.1.2 switch=n enabled=y phases=2 Linecode=1P_UG_AL_1/0_Brenau_2

New Line.l(r:p13udm3858-p13ulv44990) Units=km Length=0.0117269 bus1=p13udm3858.1.2 bus2=p13ulv44990.1.2 switch=n enabled=y phases=2 Linecode=1P_UG_AL_1/0_Brenau_2

New Line.l(r:p13udm3857-p13ulv2596) Units=km Length=0.00523683 bus1=p13udm3857.1.2 bus2=p13ulv2596.1.2 switch=n enabled=y phases=2 Linecode=1P_UG_AL_1/0_Brenau_2

New Line.l(r:p13udm3857-p13udm3858) Units=km Length=0.0187557 bus1=p13udm3858.1.2 bus2=p13udm3857.1.2 switch=n enabled=y phases=2 Linecode=1P_UG_AL_1/0_Brenau_2

New Line.l(r:p13udm3858-p13udt909lv) Units=km Length=0.00923275 bus1=p13udt909lv.1.2 bus2=p13udm3858.1.2 switch=n enabled=y phases=2 Linecode=1P_UG_AL_2/0_Converse_2

New Line.l(r:p13udm3859-p13ulv44993) Units=km Length=0.0106296 bus1=p13udm3859.1.2 bus2=p13ulv44993.1.2 switch=n enabled=y phases=2 Linecode=1P_UG_AL_1/0_Brenau_2

New Line.l(r:p13udm3860-p13ulv44994) Units=km Length=0.0146896 bus1=p13udm3860.1.2 bus2=p13ulv44994.1.2 switch=n enabled=y phases=2 Linecode=1P_UG_AL_1/0_Brenau_2

New Line.l(r:p13udm3859-p13udm3860) Units=km Length=0.00923275 bus1=p13udm3859.1.2 bus2=p13udm3860.1.2 switch=n enabled=y phases=2 Linecode=1P_UG_AL_1/0_Brenau_2

New Line.l(r:p13udm3859-p13udt909lv) Units=km Length=0.009221200000000002 bus1=p13udt909lv.1.2 bus2=p13udm3859.1.2 switch=n enabled=y phases=2 Linecode=1P_UG_AL_2/0_Converse_2

New Line.l(r:p13udt910lv-p13ulv43506) Units=km Length=0.0130236 bus1=p13udt910lv.1.2 bus2=p13ulv43506.1.2 switch=n enabled=y phases=2 Linecode=1P_UG_AL_2/0_Converse_2

New Line.l(r:p13udm3862-p13ulv2607) Units=km Length=0.0152064 bus1=p13udm3862.1.2 bus2=p13ulv2607.1.2 switch=n enabled=y phases=2 Linecode=1P_UG_AL_1/0_Brenau_2

New Line.l(r:p13udm3861-p13ulv2597) Units=km Length=0.0157162 bus1=p13udm3861.1.2 bus2=p13ulv2597.1.2 switch=n enabled=y phases=2 Linecode=1P_UG_AL_1/0_Brenau_2

New Line.l(r:p13udm3861-p13ulv2609) Units=km Length=0.00854567 bus1=p13udm3861.1.2 bus2=p13ulv2609.1.2 switch=n enabled=y phases=2 Linecode=1P_UG_AL_1/0_Brenau_2

New Line.l(r:p13udm3861-p13udm3862) Units=km Length=0.00978019 bus1=p13udm3862.1.2 bus2=p13udm3861.1.2 switch=n enabled=y phases=2 Linecode=1P_UG_AL_4/0_Sweetbriar_2

New Line.l(r:p13udm3862-p13udt910lv) Units=km Length=0.00979005 bus1=p13udt910lv.1.2 bus2=p13udm3862.1.2 switch=n enabled=y phases=2 Linecode=1P_UG_AL_4/0_Sweetbriar_2

New Line.l(r:p13udm3865-p13ulv43554) Units=km Length=0.0110523 bus1=p13udm3865.1.2 bus2=p13ulv43554.1.2 switch=n enabled=y phases=2 Linecode=1P_UG_AL_1/0_Brenau_2

New Line.l(r:p13udm3866-p13ulv43556) Units=km Length=0.00954648 bus1=p13udm3866.1.2 bus2=p13ulv43556.1.2 switch=n enabled=y phases=2 Linecode=1P_UG_AL_1/0_Brenau_2

New Line.l(r:p13udm3867-p13ulv43562) Units=km Length=0.00886377 bus1=p13udm3867.1.2 bus2=p13ulv43562.1.2 switch=n enabled=y phases=2 Linecode=1P_UG_AL_1/0_Brenau_2

New Line.l(r:p13udm3866-p13udm3867) Units=km Length=0.017419 bus1=p13udm3866.1.2 bus2=p13udm3867.1.2 switch=n enabled=y phases=2 Linecode=1P_UG_AL_1/0_Brenau_2

New Line.l(r:p13udm3865-p13udm3866) Units=km Length=0.00979005 bus1=p13udm3865.1.2 bus2=p13udm3866.1.2 switch=n enabled=y phases=2 Linecode=1P_UG_AL_1/0_Brenau_2

New Line.l(r:p13udm3865-p13udt910lv) Units=km Length=0.00977851 bus1=p13udt910lv.1.2 bus2=p13udm3865.1.2 switch=n enabled=y phases=2 Linecode=1P_UG_AL_2/0_Converse_2

New Line.l(r:p13udt911lv-p13ulv2598) Units=km Length=0.0249412 bus1=p13udt911lv.1.2 bus2=p13ulv2598.1.2 switch=n enabled=y phases=2 Linecode=1P_UG_AL_1/0_Brenau_2

New Line.l(r:p13udt911lv-p13ulv2606) Units=km Length=0.0125096 bus1=p13udt911lv.1.2 bus2=p13ulv2606.1.2 switch=n enabled=y phases=2 Linecode=1P_UG_AL_1/0_Brenau_2

New Line.l(r:p13udm3869-p13ulv2599) Units=km Length=0.01568 bus1=p13udm3869.1.2 bus2=p13ulv2599.1.2 switch=n enabled=y phases=2 Linecode=1P_UG_AL_1/0_Brenau_2

New Line.l(r:p13udm3869-p13udt911lv) Units=km Length=0.0098512 bus1=p13udt911lv.1.2 bus2=p13udm3869.1.2 switch=n enabled=y phases=2 Linecode=1P_UG_AL_1/0_Brenau_2

New Line.l(r:p13udm3871-p13ulv2608) Units=km Length=0.0120625 bus1=p13udm3871.1.2 bus2=p13ulv2608.1.2 switch=n enabled=y phases=2 Linecode=1P_UG_AL_1/0_Brenau_2

New Line.l(r:p13udm3871-p13ulv43568) Units=km Length=0.0120114 bus1=p13udm3871.1.2 bus2=p13ulv43568.1.2 switch=n enabled=y phases=2 Linecode=1P_UG_AL_1/0_Brenau_2

New Line.l(r:p13udm3872-p13ulv43550) Units=km Length=0.011347 bus1=p13udm3872.1.2 bus2=p13ulv43550.1.2 switch=n enabled=y phases=2 Linecode=1P_UG_AL_1/0_Brenau_2

New Line.l(r:p13udm3871-p13udm3872) Units=km Length=0.0098512 bus1=p13udm3871.1.2 bus2=p13udm3872.1.2 switch=n enabled=y phases=2 Linecode=1P_UG_AL_1/0_Brenau_2

New Line.l(r:p13udm3871-p13udt911lv) Units=km Length=0.00986116 bus1=p13udt911lv.1.2 bus2=p13udm3871.1.2 switch=n enabled=y phases=2 Linecode=1P_UG_AL_2/0_Converse_2

New Line.l(r:p13udt912lv-p13ulv2602) Units=km Length=0.0143137 bus1=p13udt912lv.1.2 bus2=p13ulv2602.1.2 switch=n enabled=y phases=2 Linecode=1P_UG_AL_1/0_Brenau_2

New Line.l(r:p13udt912lv-p13ulv43628) Units=km Length=0.0127645 bus1=p13udt912lv.1.2 bus2=p13ulv43628.1.2 switch=n enabled=y phases=2 Linecode=1P_UG_AL_1/0_Brenau_2

New Line.l(r:p13udm3874-p13ulv2600) Units=km Length=0.0158012 bus1=p13udm3874.1.2 bus2=p13ulv2600.1.2 switch=n enabled=y phases=2 Linecode=1P_UG_AL_1/0_Brenau_2

New Line.l(r:p13udm3874-p13ulv43641) Units=km Length=0.0137537 bus1=p13udm3874.1.2 bus2=p13ulv43641.1.2 switch=n enabled=y phases=2 Linecode=1P_UG_AL_1/0_Brenau_2

New Line.l(r:p13udm3874-p13udt912lv) Units=km Length=0.0098512 bus1=p13udt912lv.1.2 bus2=p13udm3874.1.2 switch=n enabled=y phases=2 Linecode=1P_UG_AL_2/0_Converse_2

New Line.l(r:p13udm3876-p13ulv2603) Units=km Length=0.0130775 bus1=p13udm3876.1.2 bus2=p13ulv2603.1.2 switch=n enabled=y phases=2 Linecode=1P_UG_AL_1/0_Brenau_2

New Line.l(r:p13udm3876-p13ulv42223) Units=km Length=0.0198341 bus1=p13udm3876.1.2 bus2=p13ulv42223.1.2 switch=n enabled=y phases=2 Linecode=1P_UG_AL_1/0_Brenau_2

New Line.l(r:p13udm3876-p13udt912lv) Units=km Length=0.00985212 bus1=p13udt912lv.1.2 bus2=p13udm3876.1.2 switch=n enabled=y phases=2 Linecode=1P_UG_AL_2/0_Converse_2

New Line.l(r:p13udt913lv-p13ulv2605) Units=km Length=0.0115329 bus1=p13udt913lv.1.2 bus2=p13ulv2605.1.2 switch=n enabled=y phases=2 Linecode=1P_UG_AL_1/0_Brenau_2

New Line.l(r:p13udt913lv-p13ulv42222) Units=km Length=0.0209169 bus1=p13udt913lv.1.2 bus2=p13ulv42222.1.2 switch=n enabled=y phases=2 Linecode=1P_UG_AL_1/0_Brenau_2

New Line.l(r:p13udt913lv-p13ulv43592) Units=km Length=0.0336767 bus1=p13udt913lv.1.2 bus2=p13ulv43592.1.2 switch=n enabled=y phases=2 Linecode=1P_UG_AL_1/0_Brenau_2

New Line.l(r:p13udm3880-p13ulv2604) Units=km Length=0.013201300000000001 bus1=p13udm3880.1.2 bus2=p13ulv2604.1.2 switch=n enabled=y phases=2 Linecode=1P_UG_AL_1/0_Brenau_2

New Line.l(r:p13udm3880-p13ulv43607) Units=km Length=0.0136533 bus1=p13udm3880.1.2 bus2=p13ulv43607.1.2 switch=n enabled=y phases=2 Linecode=1P_UG_AL_1/0_Brenau_2

New Line.l(r:p13udm3880-p13udt913lv) Units=km Length=0.0098512 bus1=p13udt913lv.1.2 bus2=p13udm3880.1.2 switch=n enabled=y phases=2 Linecode=1P_UG_AL_1/0_Brenau_2

New Line.l(r:p13udt914lv-p13ulv2612) Units=km Length=0.0157415 bus1=p13udt914lv.1.2 bus2=p13ulv2612.1.2 switch=n enabled=y phases=2 Linecode=1P_UG_AL_1/0_Brenau_2

New Line.l(r:p13udm3886-p13ulv2611) Units=km Length=0.013771500000000002 bus1=p13udm3886.1.2 bus2=p13ulv2611.1.2 switch=n enabled=y phases=2 Linecode=1P_UG_AL_1/0_Brenau_2

New Line.l(r:p13udm3885-p13ulv2610) Units=km Length=0.0140601 bus1=p13udm3885.1.2 bus2=p13ulv2610.1.2 switch=n enabled=y phases=2 Linecode=1P_UG_AL_1/0_Brenau_2

New Line.l(r:p13udm3885-p13udm3886) Units=km Length=0.00968914 bus1=p13udm3886.1.2 bus2=p13udm3885.1.2 switch=n enabled=y phases=2 Linecode=1P_UG_AL_1/0_Brenau_2

New Line.l(r:p13udm3886-p13udt914lv) Units=km Length=0.00968825 bus1=p13udt914lv.1.2 bus2=p13udm3886.1.2 switch=n enabled=y phases=2 Linecode=1P_UG_AL_1/0_Brenau_2

New Line.l(r:p13udm3888-p13ulv2619) Units=km Length=0.0190231 bus1=p13udm3888.1.2 bus2=p13ulv2619.1.2 switch=n enabled=y phases=2 Linecode=1P_UG_AL_1/0_Brenau_2

New Line.l(r:p13udm3888-p13ulv43608) Units=km Length=0.0135831 bus1=p13udm3888.1.2 bus2=p13ulv43608.1.2 switch=n enabled=y phases=2 Linecode=1P_UG_AL_2/0_Converse_2

New Line.l(r:p13udm3888-p13udt914lv) Units=km Length=0.00968825 bus1=p13udt914lv.1.2 bus2=p13udm3888.1.2 switch=n enabled=y phases=2 Linecode=1P_UG_AL_4/0_Sweetbriar_2

New Line.l(r:p13udt915lv-p13ulv2613) Units=km Length=0.0147081 bus1=p13udt915lv.1.2 bus2=p13ulv2613.1.2 switch=n enabled=y phases=2 Linecode=1P_UG_AL_4/0_Sweetbriar_2

New Line.l(r:p13udt915lv-p13ulv43626) Units=km Length=0.0194317 bus1=p13udt915lv.1.2 bus2=p13ulv43626.1.2 switch=n enabled=y phases=2 Linecode=1P_UG_AL_1/0_Brenau_2

New Line.l(r:p13udt915lv-p13ulv43627) Units=km Length=0.0417 bus1=p13udt915lv.1.2 bus2=p13ulv43627.1.2 switch=n enabled=y phases=2 Linecode=1P_UG_AL_1/0_Brenau_2

New Line.l(r:p13udm3891-p13ulv2623) Units=km Length=0.0165009 bus1=p13udm3891.1.2 bus2=p13ulv2623.1.2 switch=n enabled=y phases=2 Linecode=1P_UG_AL_1/0_Brenau_2

New Line.l(r:p13udm3891-p13udt915lv) Units=km Length=0.00967828 bus1=p13udt915lv.1.2 bus2=p13udm3891.1.2 switch=n enabled=y phases=2 Linecode=1P_UG_AL_1/0_Brenau_2

New Line.l(r:p13udt916lv-p13ulv2615) Units=km Length=0.016940100000000003 bus1=p13udt916lv.1.2 bus2=p13ulv2615.1.2 switch=n enabled=y phases=2 Linecode=1P_UG_AL_1/0_Brenau_2

New Line.l(r:p13udt916lv-p13ulv42170) Units=km Length=0.0168052 bus1=p13udt916lv.1.2 bus2=p13ulv42170.1.2 switch=n enabled=y phases=2 Linecode=1P_UG_AL_1/0_Brenau_2

New Line.l(r:p13udm3894-p13ulv2614) Units=km Length=0.0247509 bus1=p13udm3894.1.2 bus2=p13ulv2614.1.2 switch=n enabled=y phases=2 Linecode=1P_UG_AL_1/0_Brenau_2

New Line.l(r:p13udm3894-p13ulv42157) Units=km Length=0.0170416 bus1=p13udm3894.1.2 bus2=p13ulv42157.1.2 switch=n enabled=y phases=2 Linecode=1P_UG_AL_1/0_Brenau_2

New Line.l(r:p13udm3897-p13ulv42142) Units=km Length=0.016952500000000002 bus1=p13udm3897.1.2 bus2=p13ulv42142.1.2 switch=n enabled=y phases=2 Linecode=1P_UG_AL_1/0_Brenau_2

New Line.l(r:p13udm3896-p13ulv42128) Units=km Length=0.0187583 bus1=p13udm3896.1.2 bus2=p13ulv42128.1.2 switch=n enabled=y phases=2 Linecode=1P_UG_AL_1/0_Brenau_2

New Line.l(r:p13udm3896-p13udm3897) Units=km Length=0.00968825 bus1=p13udm3897.1.2 bus2=p13udm3896.1.2 switch=n enabled=y phases=2 Linecode=1P_UG_AL_1/0_Brenau_2

New Line.l(r:p13udm3894-p13udm3897) Units=km Length=0.00967828 bus1=p13udm3894.1.2 bus2=p13udm3897.1.2 switch=n enabled=y phases=2 Linecode=1P_UG_AL_1/0_Brenau_2

New Line.l(r:p13udm3894-p13udt916lv) Units=km Length=0.00968914 bus1=p13udt916lv.1.2 bus2=p13udm3894.1.2 switch=n enabled=y phases=2 Linecode=1P_UG_AL_4/0_Sweetbriar_2

New Line.l(r:p13udm3900-p13ulv42179) Units=km Length=0.0163727 bus1=p13udm3900.1.2 bus2=p13ulv42179.1.2 switch=n enabled=y phases=2 Linecode=1P_UG_AL_1/0_Brenau_2

New Line.l(r:p13udm3901-p13ulv42192) Units=km Length=0.0172291 bus1=p13udm3901.1.2 bus2=p13ulv42192.1.2 switch=n enabled=y phases=2 Linecode=1P_UG_AL_1/0_Brenau_2

New Line.l(r:p13udm3902-p13ulv42205) Units=km Length=0.0166288 bus1=p13udm3902.1.2 bus2=p13ulv42205.1.2 switch=n enabled=y phases=2 Linecode=1P_UG_AL_1/0_Brenau_2

New Line.l(r:p13udm3901-p13udm3902) Units=km Length=0.00968914 bus1=p13udm3901.1.2 bus2=p13udm3902.1.2 switch=n enabled=y phases=2 Linecode=1P_UG_AL_1/0_Brenau_2

New Line.l(r:p13udm3900-p13udm3901) Units=km Length=0.00968825 bus1=p13udm3900.1.2 bus2=p13udm3901.1.2 switch=n enabled=y phases=2 Linecode=1P_UG_AL_1/0_Brenau_2

New Line.l(r:p13udm3900-p13udt916lv) Units=km Length=0.00968825 bus1=p13udt916lv.1.2 bus2=p13udm3900.1.2 switch=n enabled=y phases=2 Linecode=1P_UG_AL_2/0_Converse_2

New Line.l(r:p13udt918lv-p13ulv43660) Units=km Length=0.014145200000000002 bus1=p13udt918lv.1.2 bus2=p13ulv43660.1.2 switch=n enabled=y phases=2 Linecode=1P_UG_AL_1/0_Brenau_2

New Line.l(r:p13udt918lv-p13ulv43678) Units=km Length=0.0164622 bus1=p13udt918lv.1.2 bus2=p13ulv43678.1.2 switch=n enabled=y phases=2 Linecode=1P_UG_AL_1/0_Brenau_2

New Line.l(r:p13udm3911-p13ulv2618) Units=km Length=0.0170514 bus1=p13udm3911.1.2 bus2=p13ulv2618.1.2 switch=n enabled=y phases=2 Linecode=1P_UG_AL_1/0_Brenau_2

New Line.l(r:p13udm3911-p13ulv43675) Units=km Length=0.01499 bus1=p13udm3911.1.2 bus2=p13ulv43675.1.2 switch=n enabled=y phases=2 Linecode=1P_UG_AL_1/0_Brenau_2

New Line.l(r:p13udm3911-p13udt918lv) Units=km Length=0.00968825 bus1=p13udt918lv.1.2 bus2=p13udm3911.1.2 switch=n enabled=y phases=2 Linecode=1P_UG_AL_1/0_Brenau_2

New Line.l(r:p13udm3912-p13ulv2624) Units=km Length=0.0165533 bus1=p13udm3912.1.2 bus2=p13ulv2624.1.2 switch=n enabled=y phases=2 Linecode=1P_UG_AL_1/0_Brenau_2

New Line.l(r:p13udm3912-p13ulv43647) Units=km Length=0.0145356 bus1=p13udm3912.1.2 bus2=p13ulv43647.1.2 switch=n enabled=y phases=2 Linecode=1P_UG_AL_1/0_Brenau_2

New Line.l(r:p13udm3912-p13udt918lv) Units=km Length=0.00968825 bus1=p13udt918lv.1.2 bus2=p13udm3912.1.2 switch=n enabled=y phases=2 Linecode=1P_UG_AL_1/0_Brenau_2

New Line.l(r:p13udt919lv-p13ulv2620) Units=km Length=0.0113896 bus1=p13udt919lv.1.2 bus2=p13ulv2620.1.2 switch=n enabled=y phases=2 Linecode=1P_UG_AL_1/0_Brenau_2

New Line.l(r:p13udm3918-p13ulv43529) Units=km Length=0.012724 bus1=p13udm3918.1.2 bus2=p13ulv43529.1.2 switch=n enabled=y phases=2 Linecode=1P_UG_AL_1/0_Brenau_2

New Line.l(r:p13udm3918-p13ulv43580) Units=km Length=0.0114808 bus1=p13udm3918.1.2 bus2=p13ulv43580.1.2 switch=n enabled=y phases=2 Linecode=1P_UG_AL_1/0_Brenau_2

New Line.l(r:p13udm3918-p13udt919lv) Units=km Length=0.00965298 bus1=p13udt919lv.1.2 bus2=p13udm3918.1.2 switch=n enabled=y phases=2 Linecode=1P_UG_AL_1/0_Brenau_2

New Line.l(r:p13udm3919-p13ulv43531) Units=km Length=0.0137691 bus1=p13udm3919.1.2 bus2=p13ulv43531.1.2 switch=n enabled=y phases=2 Linecode=1P_UG_AL_1/0_Brenau_2

New Line.l(r:p13udm3920-p13ulv43576) Units=km Length=0.0121595 bus1=p13udm3920.1.2 bus2=p13ulv43576.1.2 switch=n enabled=y phases=2 Linecode=1P_UG_AL_1/0_Brenau_2

New Line.l(r:p13udm3919-p13udm3920) Units=km Length=0.00965013 bus1=p13udm3919.1.2 bus2=p13udm3920.1.2 switch=n enabled=y phases=2 Linecode=1P_UG_AL_1/0_Brenau_2

New Line.l(r:p13udm3919-p13udt919lv) Units=km Length=0.00965013 bus1=p13udt919lv.1.2 bus2=p13udm3919.1.2 switch=n enabled=y phases=2 Linecode=1P_UG_AL_2/0_Converse_2

New Line.l(r:p13udt922lv-p13ulv45025) Units=km Length=0.0101636 bus1=p13udt922lv.1.2 bus2=p13ulv45025.1.2 switch=n enabled=y phases=2 Linecode=1P_UG_AL_1/0_Brenau_2

New Line.l(r:p13udm3930-p13ulv2625) Units=km Length=0.0117292 bus1=p13udm3930.1.2 bus2=p13ulv2625.1.2 switch=n enabled=y phases=2 Linecode=1P_UG_AL_1/0_Brenau_2

New Line.l(r:p13udm3930-p13ulv45026) Units=km Length=0.0102963 bus1=p13udm3930.1.2 bus2=p13ulv45026.1.2 switch=n enabled=y phases=2 Linecode=1P_UG_AL_1/0_Brenau_2

New Line.l(r:p13udm3930-p13ulv45037) Units=km Length=0.0260453 bus1=p13udm3930.1.2 bus2=p13ulv45037.1.2 switch=n enabled=y phases=2 Linecode=1P_UG_AL_1/0_Brenau_2

New Line.l(r:p13udm3930-p13udt922lv) Units=km Length=0.00945975 bus1=p13udt922lv.1.2 bus2=p13udm3930.1.2 switch=n enabled=y phases=2 Linecode=1P_UG_AL_4/0_Sweetbriar_2

New Line.l(r:p13udm3931-p13ulv45023) Units=km Length=0.00901417 bus1=p13udm3931.1.2 bus2=p13ulv45023.1.2 switch=n enabled=y phases=2 Linecode=1P_UG_AL_1/0_Brenau_2

New Line.l(r:p13udm3931-p13udt922lv) Units=km Length=0.00945975 bus1=p13udt922lv.1.2 bus2=p13udm3931.1.2 switch=n enabled=y phases=2 Linecode=1P_UG_AL_1/0_Brenau_2

New Line.l(r:p13udt923lv-p13ulv2627) Units=km Length=0.014089 bus1=p13udt923lv.1.2 bus2=p13ulv2627.1.2 switch=n enabled=y phases=2 Linecode=1P_UG_AL_1/0_Brenau_2

New Line.l(r:p13udm3938-p13ulv45003) Units=km Length=0.0137031 bus1=p13udm3938.1.2 bus2=p13ulv45003.1.2 switch=n enabled=y phases=2 Linecode=1P_UG_AL_1/0_Brenau_2

New Line.l(r:p13udm3938-p13ulv45027) Units=km Length=0.0102978 bus1=p13udm3938.1.2 bus2=p13ulv45027.1.2 switch=n enabled=y phases=2 Linecode=1P_UG_AL_1/0_Brenau_2

New Line.l(r:p13udm3938-p13ulv45048) Units=km Length=0.0321863 bus1=p13udm3938.1.2 bus2=p13ulv45048.1.2 switch=n enabled=y phases=2 Linecode=1P_UG_AL_1/0_Brenau_2

New Line.l(r:p13udm3935-p13ulv2626) Units=km Length=0.0131081 bus1=p13udm3935.1.2 bus2=p13ulv2626.1.2 switch=n enabled=y phases=2 Linecode=1P_UG_AL_1/0_Brenau_2

New Line.l(r:p13udm3935-p13udm3938) Units=km Length=0.00945975 bus1=p13udm3938.1.2 bus2=p13udm3935.1.2 switch=n enabled=y phases=2 Linecode=1P_UG_AL_1/0_Brenau_2

New Line.l(r:p13udm3938-p13udt923lv) Units=km Length=0.00944989 bus1=p13udt923lv.1.2 bus2=p13udm3938.1.2 switch=n enabled=y phases=2 Linecode=1P_UG_AL_4/0_Sweetbriar_2

New Line.l(r:p13udm3940-p13ulv45029) Units=km Length=0.010260300000000002 bus1=p13udm3940.1.2 bus2=p13ulv45029.1.2 switch=n enabled=y phases=2 Linecode=1P_UG_AL_1/0_Brenau_2

New Line.l(r:p13udm3937-p13ulv2628) Units=km Length=0.015232 bus1=p13udm3937.1.2 bus2=p13ulv2628.1.2 switch=n enabled=y phases=2 Linecode=1P_UG_AL_1/0_Brenau_2

New Line.l(r:p13udm3937-p13udm3940) Units=km Length=0.00944989 bus1=p13udm3940.1.2 bus2=p13udm3937.1.2 switch=n enabled=y phases=2 Linecode=1P_UG_AL_1/0_Brenau_2

New Line.l(r:p13udm3940-p13udt923lv) Units=km Length=0.00945975 bus1=p13udt923lv.1.2 bus2=p13udm3940.1.2 switch=n enabled=y phases=2 Linecode=1P_UG_AL_1/0_Brenau_2

New Line.l(r:p13udt924lv-p13ulv45059) Units=km Length=0.0307214 bus1=p13udt924lv.1.2 bus2=p13ulv45059.1.2 switch=n enabled=y phases=2 Linecode=1P_UG_AL_1/0_Brenau_2

New Line.l(r:p13udm3942-p13ulv2629) Units=km Length=0.012173 bus1=p13udm3942.1.2 bus2=p13ulv2629.1.2 switch=n enabled=y phases=2 Linecode=1P_UG_AL_4/0_Sweetbriar_2

New Line.l(r:p13udm3942-p13ulv45039) Units=km Length=0.0100502 bus1=p13udm3942.1.2 bus2=p13ulv45039.1.2 switch=n enabled=y phases=2 Linecode=1P_UG_AL_1/0_Brenau_2

New Line.l(r:p13udm3947-p13ulv45044) Units=km Length=0.010115 bus1=p13udm3947.1.2 bus2=p13ulv45044.1.2 switch=n enabled=y phases=2 Linecode=1P_UG_AL_1/0_Brenau_2

New Line.l(r:p13udm3942-p13udm3947) Units=km Length=0.0288243 bus1=p13udm3942.1.2 bus2=p13udm3947.1.2 switch=n enabled=y phases=2 Linecode=1P_UG_AL_1/0_Brenau_2

New Line.l(r:p13udm3942-p13udt924lv) Units=km Length=0.00960427 bus1=p13udt924lv.1.2 bus2=p13udm3942.1.2 switch=n enabled=y phases=2 Linecode=1P_UG_AL_4/0_Sweetbriar_2

New Line.l(r:p13udm3944-p13ulv45013) Units=km Length=0.0140397 bus1=p13udm3944.1.2 bus2=p13ulv45013.1.2 switch=n enabled=y phases=2 Linecode=1P_UG_AL_1/0_Brenau_2

New Line.l(r:p13udm3944-p13ulv45031) Units=km Length=0.008785560000000001 bus1=p13udm3944.1.2 bus2=p13ulv45031.1.2 switch=n enabled=y phases=2 Linecode=1P_UG_AL_1/0_Brenau_2

New Line.l(r:p13udm3943-p13ulv45008) Units=km Length=0.0140493 bus1=p13udm3943.1.2 bus2=p13ulv45008.1.2 switch=n enabled=y phases=2 Linecode=1P_UG_AL_1/0_Brenau_2

New Line.l(r:p13udm3943-p13udm3944) Units=km Length=0.00960427 bus1=p13udm3944.1.2 bus2=p13udm3943.1.2 switch=n enabled=y phases=2 Linecode=1P_UG_AL_1/0_Brenau_2

New Line.l(r:p13udm3944-p13udt924lv) Units=km Length=0.00960427 bus1=p13udt924lv.1.2 bus2=p13udm3944.1.2 switch=n enabled=y phases=2 Linecode=1P_UG_AL_4/0_Sweetbriar_2

New Line.l(r:p13udt929lv-p13ulv2635) Units=km Length=0.0158719 bus1=p13udt929lv.1.2 bus2=p13ulv2635.1.2 switch=n enabled=y phases=2 Linecode=1P_UG_AL_1/0_Brenau_2

New Line.l(r:p13udm3961-p13ulv2634) Units=km Length=0.0160056 bus1=p13udm3961.1.2 bus2=p13ulv2634.1.2 switch=n enabled=y phases=2 Linecode=1P_UG_AL_1/0_Brenau_2

New Line.l(r:p13udm3961-p13ulv45125) Units=km Length=0.0145325 bus1=p13udm3961.1.2 bus2=p13ulv45125.1.2 switch=n enabled=y phases=2 Linecode=1P_UG_AL_1/0_Brenau_2

New Line.l(r:p13udm3961-p13ulv45127) Units=km Length=0.0159426 bus1=p13udm3961.1.2 bus2=p13ulv45127.1.2 switch=n enabled=y phases=2 Linecode=1P_UG_AL_1/0_Brenau_2

New Line.l(r:p13udm3961-p13ulv45129) Units=km Length=0.0267011 bus1=p13udm3961.1.2 bus2=p13ulv45129.1.2 switch=n enabled=y phases=2 Linecode=1P_UG_AL_1/0_Brenau_2

New Line.l(r:p13udm3961-p13udt929lv) Units=km Length=0.0195485 bus1=p13udt929lv.1.2 bus2=p13udm3961.1.2 switch=n enabled=y phases=2 Linecode=1P_UG_AL_4/0_Sweetbriar_2

New Line.l(r:p13udm3963-p13ulv43481) Units=km Length=0.014983000000000002 bus1=p13udm3963.1.2 bus2=p13ulv43481.1.2 switch=n enabled=y phases=2 Linecode=1P_UG_AL_1/0_Brenau_2

New Line.l(r:p13udm3964-p13ulv43526) Units=km Length=0.0163982 bus1=p13udm3964.1.2 bus2=p13ulv43526.1.2 switch=n enabled=y phases=2 Linecode=1P_UG_AL_1/0_Brenau_2

New Line.l(r:p13udm3963-p13udm3964) Units=km Length=0.0390852 bus1=p13udm3963.1.2 bus2=p13udm3964.1.2 switch=n enabled=y phases=2 Linecode=1P_UG_AL_1/0_Brenau_2

New Line.l(r:p13udm3963-p13udt929lv) Units=km Length=0.00976882 bus1=p13udt929lv.1.2 bus2=p13udm3963.1.2 switch=n enabled=y phases=2 Linecode=1P_UG_AL_4/0_Sweetbriar_2

New Line.l(r:p13udt931lv-p13ulv46438) Units=km Length=0.00984033 bus1=p13udt931lv.1.2 bus2=p13ulv46438.1.2 switch=n enabled=y phases=2 Linecode=1P_UG_AL_4/0_Sweetbriar_2

New Line.l(r:p13udm3971-p13ulv2638) Units=km Length=0.0100176 bus1=p13udm3971.1.2 bus2=p13ulv2638.1.2 switch=n enabled=y phases=2 Linecode=1P_UG_AL_1/0_Brenau_2

New Line.l(r:p13udm3971-p13udt931lv) Units=km Length=0.00899316 bus1=p13udt931lv.1.2 bus2=p13udm3971.1.2 switch=n enabled=y phases=2 Linecode=1P_UG_AL_1/0_Brenau_2

New Line.l(r:p13udm3995-p13ulv2646) Units=km Length=0.0100536 bus1=p13udm3995.1.2 bus2=p13ulv2646.1.2 switch=n enabled=y phases=2 Linecode=1P_OH_AL_2/0_Rucina_2

New Line.l(r:p13udm3995-p13udt937lv) Units=km Length=0.061486 bus1=p13udt937lv.1.2 bus2=p13udm3995.1.2 switch=n enabled=y phases=2 Linecode=1P_OH_AL_4/0_Zuzara_2

New Line.l(r:p13udm3996-p13ulv46486) Units=km Length=0.0111148 bus1=p13udm3996.1.2 bus2=p13ulv46486.1.2 switch=n enabled=y phases=2 Linecode=1P_OH_AL_2/0_Rucina_2

New Line.l(r:p13udm3996-p13udt937lv) Units=km Length=0.0136032 bus1=p13udt937lv.1.2 bus2=p13udm3996.1.2 switch=n enabled=y phases=2 Linecode=1P_OH_AL_2/0_Rucina_2

New Line.l(r:p13udt1021lv-p13ulv2780) Units=km Length=0.00707312 bus1=p13udt1021lv.1.2 bus2=p13ulv2780.1.2 switch=n enabled=y phases=2 Linecode=1P_OH_AL_2/0_Rucina_2

New Line.l(r:p13udt1220lv-p13ulv3227) Units=km Length=0.0113137 bus1=p13udt1220lv.1.2 bus2=p13ulv3227.1.2 switch=n enabled=y phases=2 Linecode=1P_UG_AL_1/0_Brenau_2

New Line.l(r:p13udm5194-p13ulv3228) Units=km Length=0.0115202 bus1=p13udm5194.1.2 bus2=p13ulv3228.1.2 switch=n enabled=y phases=2 Linecode=1P_UG_AL_1/0_Brenau_2

New Line.l(r:p13udm5194-p13ulv46359) Units=km Length=0.0105372 bus1=p13udm5194.1.2 bus2=p13ulv46359.1.2 switch=n enabled=y phases=2 Linecode=1P_UG_AL_1/0_Brenau_2

New Line.l(r:p13udm5195-p13ulv46352) Units=km Length=0.00978491 bus1=p13udm5195.1.2 bus2=p13ulv46352.1.2 switch=n enabled=y phases=2 Linecode=1P_UG_AL_1/0_Brenau_2

New Line.l(r:p13udm5194-p13udm5195) Units=km Length=0.00958449 bus1=p13udm5194.1.2 bus2=p13udm5195.1.2 switch=n enabled=y phases=2 Linecode=1P_UG_AL_1/0_Brenau_2

New Line.l(r:p13udm5194-p13udt1220lv) Units=km Length=0.00959269 bus1=p13udt1220lv.1.2 bus2=p13udm5194.1.2 switch=n enabled=y phases=2 Linecode=1P_UG_AL_4/0_Sweetbriar_2

New Line.l(r:p13udm5196-p13ulv46353) Units=km Length=0.0120614 bus1=p13udm5196.1.2 bus2=p13ulv46353.1.2 switch=n enabled=y phases=2 Linecode=1P_UG_AL_1/0_Brenau_2

New Line.l(r:p13udm5196-p13ulv46417) Units=km Length=0.01253 bus1=p13udm5196.1.2 bus2=p13ulv46417.1.2 switch=n enabled=y phases=2 Linecode=1P_UG_AL_1/0_Brenau_2

New Line.l(r:p13udm5197-p13ulv46358) Units=km Length=0.0122346 bus1=p13udm5197.1.2 bus2=p13ulv46358.1.2 switch=n enabled=y phases=2 Linecode=1P_UG_AL_1/0_Brenau_2

New Line.l(r:p13udm5197-p13ulv46420) Units=km Length=0.011719 bus1=p13udm5197.1.2 bus2=p13ulv46420.1.2 switch=n enabled=y phases=2 Linecode=1P_UG_AL_1/0_Brenau_2

New Line.l(r:p13udm5196-p13udm5197) Units=km Length=0.00959269 bus1=p13udm5196.1.2 bus2=p13udm5197.1.2 switch=n enabled=y phases=2 Linecode=1P_UG_AL_2/0_Converse_2

New Line.l(r:p13udm5196-p13udt1220lv) Units=km Length=0.00958449 bus1=p13udt1220lv.1.2 bus2=p13udm5196.1.2 switch=n enabled=y phases=2 Linecode=1P_UG_AL_4/0_Sweetbriar_2

New Line.l(r:p13udm55221-p13ulv28468) Units=km Length=0.00892664 bus1=p13udm55221.1.2 bus2=p13ulv28468.1.2 switch=n enabled=y phases=2 Linecode=1P_OH_AL_2/0_Rucina_2

New Line.l(r:p13udm55221-p13udt12979lv) Units=km Length=0.0328353 bus1=p13udt12979lv.1.2 bus2=p13udm55221.1.2 switch=n enabled=y phases=2 Linecode=1P_OH_AL_4/0_Zuzara_2

New Line.l(r:p13udm55222-p13ulv29015) Units=km Length=0.00257263 bus1=p13udm55222.1.2 bus2=p13ulv29015.1.2 switch=n enabled=y phases=2 Linecode=1P_OH_AL_4_Periwinkle_2

New Line.l(r:p13udm55222-p13udt12979lv) Units=km Length=0.0182272 bus1=p13udt12979lv.1.2 bus2=p13udm55222.1.2 switch=n enabled=y phases=2 Linecode=1P_OH_AL_2/0_Rucina_2

New Line.l(r:p13udm55224-p13ulv28470) Units=km Length=0.0100251 bus1=p13udm55224.1.2 bus2=p13ulv28470.1.2 switch=n enabled=y phases=2 Linecode=1P_OH_AL_2/0_Rucina_2

New Line.l(r:p13udm55224-p13udt12981lv) Units=km Length=0.0969195 bus1=p13udt12981lv.1.2 bus2=p13udm55224.1.2 switch=n enabled=y phases=2 Linecode=1P_OH_AL_4/0_Zuzara_2

New Line.l(r:p13udm55225-p13ulv28473) Units=km Length=0.0319898 bus1=p13udm55225.1.2 bus2=p13ulv28473.1.2 switch=n enabled=y phases=2 Linecode=1P_OH_AL_4/0_Zuzara_2

New Line.l(r:p13udm55225-p13ulv28474) Units=km Length=0.0143619 bus1=p13udm55225.1.2 bus2=p13ulv28474.1.2 switch=n enabled=y phases=2 Linecode=1P_OH_AL_2/0_Rucina_2

New Line.l(r:p13udm55225-p13udt12981lv) Units=km Length=0.00622875 bus1=p13udt12981lv.1.2 bus2=p13udm55225.1.2 switch=n enabled=y phases=2 Linecode=1P_OH_AL_2/0_Rucina_2

New Line.l(r:p13udt12983lv-p13ulv28475) Units=km Length=0.0237589 bus1=p13udt12983lv.1.2 bus2=p13ulv28475.1.2 switch=n enabled=y phases=2 Linecode=1P_OH_AL_2/0_Rucina_2

New Line.l(r:p13udt12983lv-p13ulv28476) Units=km Length=0.0389017 bus1=p13udt12983lv.1.2 bus2=p13ulv28476.1.2 switch=n enabled=y phases=2 Linecode=1P_OH_AL_4/0_Zuzara_2

New Line.l(r:p13udt12983lv-p13ulv28477) Units=km Length=0.0322754 bus1=p13udt12983lv.1.2 bus2=p13ulv28477.1.2 switch=n enabled=y phases=2 Linecode=1P_OH_AL_4/0_Zuzara_2

New Line.l(r:p13udm55228-p13ulv28472) Units=km Length=0.006199720000000001 bus1=p13udm55228.1.2 bus2=p13ulv28472.1.2 switch=n enabled=y phases=2 Linecode=1P_OH_AL_2/0_Rucina_2

New Line.l(r:p13udm55228-p13udt12983lv) Units=km Length=0.0123466 bus1=p13udt12983lv.1.2 bus2=p13udm55228.1.2 switch=n enabled=y phases=2 Linecode=1P_OH_AL_2/0_Rucina_2

New Line.l(r:p13udt12985lv-p13ulv28479) Units=km Length=0.00905681 bus1=p13udt12985lv.1.2 bus2=p13ulv28479.1.2 switch=n enabled=y phases=2 Linecode=1P_OH_AL_2/0_Rucina_2

New Line.l(r:p13udt13042lv-p13ulv28579) Units=km Length=0.0079082 bus1=p13udt13042lv.1.2 bus2=p13ulv28579.1.2 switch=n enabled=y phases=2 Linecode=1P_OH_AL_2/0_Rucina_2

New Line.l(r:p13udt13044lv-p13ulv28584) Units=km Length=0.00866988 bus1=p13udt13044lv.1.2 bus2=p13ulv28584.1.2 switch=n enabled=y phases=2 Linecode=1P_OH_AL_2/0_Rucina_2

New Line.l(r:p13udt13048lv-p13ulv28593) Units=km Length=0.0105334 bus1=p13udt13048lv.1.2 bus2=p13ulv28593.1.2 switch=n enabled=y phases=2 Linecode=1P_UG_AL_1/0_Brenau_2

New Line.l(r:p13udt13048lv-p13ulv28594) Units=km Length=0.0212831 bus1=p13udt13048lv.1.2 bus2=p13ulv28594.1.2 switch=n enabled=y phases=2 Linecode=1P_UG_AL_1/0_Brenau_2

New Line.l(r:p13udm55347-p13ulv28592) Units=km Length=0.0102986 bus1=p13udm55347.1.2 bus2=p13ulv28592.1.2 switch=n enabled=y phases=2 Linecode=1P_UG_AL_1/0_Brenau_2

New Line.l(r:p13udm55347-p13udt13048lv) Units=km Length=0.0188163 bus1=p13udt13048lv.1.2 bus2=p13udm55347.1.2 switch=n enabled=y phases=2 Linecode=1P_UG_AL_1/0_Brenau_2

New Line.l(r:p13udt13137lv-p13ulv29106) Units=km Length=0.0137191 bus1=p13udt13137lv.1.2 bus2=p13ulv29106.1.2 switch=n enabled=y phases=2 Linecode=1P_UG_AL_1/0_Brenau_2

New Line.l(r:p13udt13137lv-p13ulv40981) Units=km Length=0.0116037 bus1=p13udt13137lv.1.2 bus2=p13ulv40981.1.2 switch=n enabled=y phases=2 Linecode=1P_UG_AL_1/0_Brenau_2

New Line.l(r:p13udm55629-p13ulv29107) Units=km Length=0.0123553 bus1=p13udm55629.1.2 bus2=p13ulv29107.1.2 switch=n enabled=y phases=2 Linecode=1P_UG_AL_1/0_Brenau_2

New Line.l(r:p13udm55627-p13ulv28805) Units=km Length=0.0120408 bus1=p13udm55627.1.2 bus2=p13ulv28805.1.2 switch=n enabled=y phases=2 Linecode=1P_UG_AL_1/0_Brenau_2

New Line.l(r:p13udm55627-p13udm55629) Units=km Length=0.00968192 bus1=p13udm55629.1.2 bus2=p13udm55627.1.2 switch=n enabled=y phases=2 Linecode=1P_UG_AL_1/0_Brenau_2

New Line.l(r:p13udm55629-p13udt13137lv) Units=km Length=0.009681 bus1=p13udt13137lv.1.2 bus2=p13udm55629.1.2 switch=n enabled=y phases=2 Linecode=1P_UG_AL_1/0_Brenau_2

New Line.l(r:p13udm55631-p13ulv41002) Units=km Length=0.0149988 bus1=p13udm55631.1.2 bus2=p13ulv41002.1.2 switch=n enabled=y phases=2 Linecode=1P_UG_AL_1/0_Brenau_2

New Line.l(r:p13udm55631-p13udt13137lv) Units=km Length=0.0387068 bus1=p13udt13137lv.1.2 bus2=p13udm55631.1.2 switch=n enabled=y phases=2 Linecode=1P_UG_AL_1/0_Brenau_2

New Line.l(r:p13udt13138lv-p13ulv40979) Units=km Length=0.013394100000000003 bus1=p13udt13138lv.1.2 bus2=p13ulv40979.1.2 switch=n enabled=y phases=2 Linecode=1P_UG_AL_1/0_Brenau_2

New Line.l(r:p13udm55632-p13ulv28806) Units=km Length=0.0142519 bus1=p13udm55632.1.2 bus2=p13ulv28806.1.2 switch=n enabled=y phases=2 Linecode=1P_UG_AL_1/0_Brenau_2

New Line.l(r:p13udm55632-p13ulv40976) Units=km Length=0.0140684 bus1=p13udm55632.1.2 bus2=p13ulv40976.1.2 switch=n enabled=y phases=2 Linecode=1P_UG_AL_1/0_Brenau_2

New Line.l(r:p13udm55633-p13ulv28807) Units=km Length=0.013253 bus1=p13udm55633.1.2 bus2=p13ulv28807.1.2 switch=n enabled=y phases=2 Linecode=1P_UG_AL_1/0_Brenau_2

New Line.l(r:p13udm55632-p13udm55633) Units=km Length=0.00956873 bus1=p13udm55632.1.2 bus2=p13udm55633.1.2 switch=n enabled=y phases=2 Linecode=1P_UG_AL_1/0_Brenau_2

New Line.l(r:p13udm55632-p13udt13138lv) Units=km Length=0.00955877 bus1=p13udt13138lv.1.2 bus2=p13udm55632.1.2 switch=n enabled=y phases=2 Linecode=1P_UG_AL_4/0_Sweetbriar_2

New Line.l(r:p13udm55637-p13ulv40984) Units=km Length=0.0154517 bus1=p13udm55637.1.2 bus2=p13ulv40984.1.2 switch=n enabled=y phases=2 Linecode=1P_UG_AL_1/0_Brenau_2

New Line.l(r:p13udm55638-p13ulv40989) Units=km Length=0.0149477 bus1=p13udm55638.1.2 bus2=p13ulv40989.1.2 switch=n enabled=y phases=2 Linecode=1P_UG_AL_1/0_Brenau_2

New Line.l(r:p13udm55638-p13ulv40991) Units=km Length=0.0162862 bus1=p13udm55638.1.2 bus2=p13ulv40991.1.2 switch=n enabled=y phases=2 Linecode=1P_UG_AL_1/0_Brenau_2

New Line.l(r:p13udm55634-p13ulv29105) Units=km Length=0.0133043 bus1=p13udm55634.1.2 bus2=p13ulv29105.1.2 switch=n enabled=y phases=2 Linecode=1P_UG_AL_1/0_Brenau_2

New Line.l(r:p13udm55634-p13udm55638) Units=km Length=0.00955877 bus1=p13udm55638.1.2 bus2=p13udm55634.1.2 switch=n enabled=y phases=2 Linecode=1P_UG_AL_1/0_Brenau_2

New Line.l(r:p13udm55637-p13udm55638) Units=km Length=0.00956873 bus1=p13udm55637.1.2 bus2=p13udm55638.1.2 switch=n enabled=y phases=2 Linecode=1P_UG_AL_2/0_Converse_2

New Line.l(r:p13udm55637-p13udt13138lv) Units=km Length=0.00956873 bus1=p13udt13138lv.1.2 bus2=p13udm55637.1.2 switch=n enabled=y phases=2 Linecode=1P_UG_AL_4/0_Sweetbriar_2

New Line.l(r:p13udt13139lv-p13ulv28808) Units=km Length=0.0102331 bus1=p13udt13139lv.1.2 bus2=p13ulv28808.1.2 switch=n enabled=y phases=2 Linecode=1P_UG_AL_1/0_Brenau_2

New Line.l(r:p13udt13139lv-p13ulv41046) Units=km Length=0.0406455 bus1=p13udt13139lv.1.2 bus2=p13ulv41046.1.2 switch=n enabled=y phases=2 Linecode=1P_UG_AL_1/0_Brenau_2

New Line.l(r:p13udt13139lv-p13ulv41055) Units=km Length=0.0122208 bus1=p13udt13139lv.1.2 bus2=p13ulv41055.1.2 switch=n enabled=y phases=2 Linecode=1P_UG_AL_1/0_Brenau_2

New Line.l(r:p13udm55641-p13ulv28812) Units=km Length=0.0125502 bus1=p13udm55641.1.2 bus2=p13ulv28812.1.2 switch=n enabled=y phases=2 Linecode=1P_UG_AL_1/0_Brenau_2

New Line.l(r:p13udm55641-p13udt13139lv) Units=km Length=0.00925585 bus1=p13udt13139lv.1.2 bus2=p13udm55641.1.2 switch=n enabled=y phases=2 Linecode=1P_UG_AL_1/0_Brenau_2

New Line.l(r:p13udm55645-p13ulv41054) Units=km Length=0.0138669 bus1=p13udm55645.1.2 bus2=p13ulv41054.1.2 switch=n enabled=y phases=2 Linecode=1P_UG_AL_1/0_Brenau_2

New Line.l(r:p13udm55642-p13ulv39764) Units=km Length=0.014411400000000001 bus1=p13udm55642.1.2 bus2=p13ulv39764.1.2 switch=n enabled=y phases=2 Linecode=1P_UG_AL_1/0_Brenau_2

New Line.l(r:p13udm55642-p13ulv39770) Units=km Length=0.0314205 bus1=p13udm55642.1.2 bus2=p13ulv39770.1.2 switch=n enabled=y phases=2 Linecode=1P_UG_AL_1/0_Brenau_2

New Line.l(r:p13udm55642-p13udm55645) Units=km Length=0.009246 bus1=p13udm55645.1.2 bus2=p13udm55642.1.2 switch=n enabled=y phases=2 Linecode=1P_UG_AL_1/0_Brenau_2

New Line.l(r:p13udm55645-p13udt13139lv) Units=km Length=0.00924771 bus1=p13udt13139lv.1.2 bus2=p13udm55645.1.2 switch=n enabled=y phases=2 Linecode=1P_UG_AL_2/0_Converse_2

New Line.l(r:p13udt13140lv-p13ulv28810) Units=km Length=0.0125012 bus1=p13udt13140lv.1.2 bus2=p13ulv28810.1.2 switch=n enabled=y phases=2 Linecode=1P_UG_AL_1/0_Brenau_2

New Line.l(r:p13udm55649-p13ulv41064) Units=km Length=0.00791746 bus1=p13udm55649.1.2 bus2=p13ulv41064.1.2 switch=n enabled=y phases=2 Linecode=1P_UG_AL_4/0_Sweetbriar_2

New Line.l(r:p13udm55649-p13udt13140lv) Units=km Length=0.0279923 bus1=p13udt13140lv.1.2 bus2=p13udm55649.1.2 switch=n enabled=y phases=2 Linecode=1P_UG_AL_4/0_Sweetbriar_2

New Line.l(r:p13udm55650-p13ulv41065) Units=km Length=0.012345500000000002 bus1=p13udm55650.1.2 bus2=p13ulv41065.1.2 switch=n enabled=y phases=2 Linecode=1P_UG_AL_1/0_Brenau_2

New Line.l(r:p13udm55648-p13ulv41063) Units=km Length=0.0124345 bus1=p13udm55648.1.2 bus2=p13ulv41063.1.2 switch=n enabled=y phases=2 Linecode=1P_UG_AL_1/0_Brenau_2

New Line.l(r:p13udm55648-p13udm55650) Units=km Length=0.00932966 bus1=p13udm55650.1.2 bus2=p13udm55648.1.2 switch=n enabled=y phases=2 Linecode=1P_UG_AL_1/0_Brenau_2

New Line.l(r:p13udm55650-p13udt13140lv) Units=km Length=0.0186626 bus1=p13udt13140lv.1.2 bus2=p13udm55650.1.2 switch=n enabled=y phases=2 Linecode=1P_UG_AL_1/0_Brenau_2

New Line.l(r:p13udt13141lv-p13ulv28811) Units=km Length=0.0131477 bus1=p13udt13141lv.1.2 bus2=p13ulv28811.1.2 switch=n enabled=y phases=2 Linecode=1P_UG_AL_4/0_Sweetbriar_2

New Line.l(r:p13udm55652-p13ulv28813) Units=km Length=0.0163612 bus1=p13udm55652.1.2 bus2=p13ulv28813.1.2 switch=n enabled=y phases=2 Linecode=1P_UG_AL_1/0_Brenau_2

New Line.l(r:p13udm55652-p13ulv41071) Units=km Length=0.0108555 bus1=p13udm55652.1.2 bus2=p13ulv41071.1.2 switch=n enabled=y phases=2 Linecode=1P_UG_AL_1/0_Brenau_2

New Line.l(r:p13udm55652-p13udt13142lv) Units=km Length=0.00925585 bus1=p13udt13142lv.1.2 bus2=p13udm55652.1.2 switch=n enabled=y phases=2 Linecode=1P_UG_AL_1/0_Brenau_2

New Line.l(r:p13udm55653-p13ulv28814) Units=km Length=0.011733600000000002 bus1=p13udm55653.1.2 bus2=p13ulv28814.1.2 switch=n enabled=y phases=2 Linecode=1P_UG_AL_4/0_Sweetbriar_2

New Line.l(r:p13udm55653-p13udt13142lv) Units=km Length=0.00924771 bus1=p13udt13142lv.1.2 bus2=p13udm55653.1.2 switch=n enabled=y phases=2 Linecode=1P_UG_AL_4/0_Sweetbriar_2

New Line.l(r:p13udt13143lv-p13ulv28815) Units=km Length=0.0156415 bus1=p13udt13143lv.1.2 bus2=p13ulv28815.1.2 switch=n enabled=y phases=2 Linecode=1P_UG_AL_1/0_Brenau_2

New Line.l(r:p13udt13143lv-p13ulv41044) Units=km Length=0.0414248 bus1=p13udt13143lv.1.2 bus2=p13ulv41044.1.2 switch=n enabled=y phases=2 Linecode=1P_UG_AL_1/0_Brenau_2

New Line.l(r:p13udm55656-p13ulv29098) Units=km Length=0.0137492 bus1=p13udm55656.1.2 bus2=p13ulv29098.1.2 switch=n enabled=y phases=2 Linecode=1P_UG_AL_1/0_Brenau_2

New Line.l(r:p13udm55656-p13ulv41048) Units=km Length=0.0362637 bus1=p13udm55656.1.2 bus2=p13ulv41048.1.2 switch=n enabled=y phases=2 Linecode=1P_UG_AL_1/0_Brenau_2

New Line.l(r:p13udm55662-p13ulv41053) Units=km Length=0.0125131 bus1=p13udm55662.1.2 bus2=p13ulv41053.1.2 switch=n enabled=y phases=2 Linecode=1P_UG_AL_1/0_Brenau_2

...