data/shbh_evnc_2/p13u/p13uhs0_1247/DSSfiles/p13uhs0_1247--p13udt18158/Lines.dss
New Line.l(r:p13udt9187lv-p13ulv19932) Units=km Length=0.00858168 bus1=p13udt9187lv.1.2 bus2=p13ulv19932.1.2 switch=n enabled=y phases=2 Linecode=1P_UG_AL_4/0_Sweetbriar_2

New Line.l(r:p13udt9188lv-p13ulv19934) Units=km Length=0.0180045 bus1=p13udt9188lv.1.2 bus2=p13ulv19934.1.2 switch=n enabled=y phases=2 Linecode=1P_OH_AL_2/0_Rucina_2

New Line.l(r:p13udt9189lv-p13ulv19935) Units=km Length=0.0113933 bus1=p13udt9189lv.1.2 bus2=p13ulv19935.1.2 switch=n enabled=y phases=2 Linecode=1P_UG_AL_4/0_Sweetbriar_2

New Line.l(r:p13udm39011-p13ulv19939) Units=km Length=0.00918245 bus1=p13udm39011.1.2 bus2=p13ulv19939.1.2 switch=n enabled=y phases=2 Linecode=1P_OH_AL_2/0_Rucina_2

New Line.l(r:p13udm39011-p13udt9192lv) Units=km Length=0.0167009 bus1=p13udt9192lv.1.2 bus2=p13udm39011.1.2 switch=n enabled=y phases=2 Linecode=1P_OH_AL_2/0_Rucina_2

New Line.l(r:p13udm39012-p13ulv28576) Units=km Length=0.023616000000000005 bus1=p13udm39012.1.2 bus2=p13ulv28576.1.2 switch=n enabled=y phases=2 Linecode=1P_OH_AL_2/0_Rucina_2

New Line.l(r:p13udm39012-p13udt9192lv) Units=km Length=0.0333999 bus1=p13udt9192lv.1.2 bus2=p13udm39012.1.2 switch=n enabled=y phases=2 Linecode=1P_OH_AL_4/0_Zuzara_2

New Line.l(r:p13udm39128-p13ulv20025) Units=km Length=0.0106468 bus1=p13udm39128.1.2 bus2=p13ulv20025.1.2 switch=n enabled=y phases=2 Linecode=1P_UG_AL_2/0_Converse_2

New Line.l(r:p13udm39128-p13udt9244lv) Units=km Length=0.0264366 bus1=p13udt9244lv.1.2 bus2=p13udm39128.1.2 switch=n enabled=y phases=2 Linecode=1P_UG_AL_2/0_Converse_2

New Line.l(r:p13udm39129-p13ulv39786) Units=km Length=0.0124409 bus1=p13udm39129.1.2 bus2=p13ulv39786.1.2 switch=n enabled=y phases=2 Linecode=1P_UG_AL_4/0_Sweetbriar_2

New Line.l(r:p13udm39129-p13udt9244lv) Units=km Length=0.0264375 bus1=p13udt9244lv.1.2 bus2=p13udm39129.1.2 switch=n enabled=y phases=2 Linecode=1P_UG_AL_4/0_Sweetbriar_2

New Line.l(r:p13udt9249lv-p13ulv20031) Units=km Length=0.0253766 bus1=p13udt9249lv.1.2 bus2=p13ulv20031.1.2 switch=n enabled=y phases=2 Linecode=1P_OH_AL_2/0_Rucina_2

New Line.l(r:p13udm55234-p13ulv28480) Units=km Length=0.00962624 bus1=p13udm55234.1.2 bus2=p13ulv28480.1.2 switch=n enabled=y phases=2 Linecode=1P_UG_AL_4/0_Sweetbriar_2

New Line.l(r:p13udm55234-p13udt12986lv) Units=km Length=0.00918662 bus1=p13udt12986lv.1.2 bus2=p13udm55234.1.2 switch=n enabled=y phases=2 Linecode=1P_UG_AL_4/0_Sweetbriar_2

New Line.l(r:p13udm55235-p13ulv28481) Units=km Length=0.012492800000000002 bus1=p13udm55235.1.2 bus2=p13ulv28481.1.2 switch=n enabled=y phases=2 Linecode=1P_UG_AL_4/0_Sweetbriar_2

New Line.l(r:p13udm55235-p13udt12986lv) Units=km Length=0.00919648 bus1=p13udt12986lv.1.2 bus2=p13udm55235.1.2 switch=n enabled=y phases=2 Linecode=1P_UG_AL_4/0_Sweetbriar_2

New Line.l(r:p13udt12990lv-p13ulv28485) Units=km Length=0.00885301 bus1=p13udt12990lv.1.2 bus2=p13ulv28485.1.2 switch=n enabled=y phases=2 Linecode=1P_OH_AL_2/0_Rucina_2

New Line.l(r:p13udm55245-p13ulv28486) Units=km Length=0.00894014 bus1=p13udm55245.1.2 bus2=p13ulv28486.1.2 switch=n enabled=y phases=2 Linecode=1P_UG_AL_4/0_Sweetbriar_2

New Line.l(r:p13udm55245-p13udt12990lv) Units=km Length=0.0492336 bus1=p13udt12990lv.1.2 bus2=p13udm55245.1.2 switch=n enabled=y phases=2 Linecode=1P_OH_AL_4/0_Zuzara_2

New Line.l(r:p13udt12992lv-p13ulv28489) Units=km Length=0.0124421 bus1=p13udt12992lv.1.2 bus2=p13ulv28489.1.2 switch=n enabled=y phases=2 Linecode=1P_OH_AL_2/0_Rucina_2

New Line.l(r:p13udm55253-p13ulv28490) Units=km Length=0.0123852 bus1=p13udm55253.1.2 bus2=p13ulv28490.1.2 switch=n enabled=y phases=2 Linecode=1P_OH_AL_2/0_Rucina_2

New Line.l(r:p13udm55253-p13udt12992lv) Units=km Length=0.0172832 bus1=p13udt12992lv.1.2 bus2=p13udm55253.1.2 switch=n enabled=y phases=2 Linecode=1P_OH_AL_2/0_Rucina_2

New Line.l(r:p13udt12997lv-p13ulv28497) Units=km Length=0.0088132 bus1=p13udt12997lv.1.2 bus2=p13ulv28497.1.2 switch=n enabled=y phases=2 Linecode=1P_UG_AL_4/0_Sweetbriar_2

New Line.l(r:p13udt13003lv-p13ulv28505) Units=km Length=0.0121288 bus1=p13udt13003lv.1.2 bus2=p13ulv28505.1.2 switch=n enabled=y phases=2 Linecode=1P_OH_AL_2/0_Rucina_2

New Line.l(r:p13udt13006lv-p13ulv28508) Units=km Length=0.00459644 bus1=p13udt13006lv.1.2 bus2=p13ulv28508.1.2 switch=n enabled=y phases=2 Linecode=1P_OH_AL_2/0_Rucina_2

New Line.l(r:p13udm55282-p13ulv28509) Units=km Length=0.00358336 bus1=p13udm55282.1.2 bus2=p13ulv28509.1.2 switch=n enabled=y phases=2 Linecode=1P_OH_AL_4_Periwinkle_2

New Line.l(r:p13udm55282-p13udt13006lv) Units=km Length=0.0161333 bus1=p13udt13006lv.1.2 bus2=p13udm55282.1.2 switch=n enabled=y phases=2 Linecode=1P_OH_AL_2/0_Rucina_2

New Line.l(r:p13udt13010lv-p13ulv28518) Units=km Length=0.0122254 bus1=p13udt13010lv.1.2 bus2=p13ulv28518.1.2 switch=n enabled=y phases=2 Linecode=1P_OH_AL_2/0_Rucina_2

New Line.l(r:p13udm55287-p13ulv28517) Units=km Length=0.0119232 bus1=p13udm55287.1.2 bus2=p13ulv28517.1.2 switch=n enabled=y phases=2 Linecode=1P_OH_AL_2/0_Rucina_2

New Line.l(r:p13udm55287-p13udt13010lv) Units=km Length=0.0105628 bus1=p13udt13010lv.1.2 bus2=p13udm55287.1.2 switch=n enabled=y phases=2 Linecode=1P_OH_AL_2/0_Rucina_2

New Line.l(r:p13udt13011lv-p13ulv28520) Units=km Length=0.00956747 bus1=p13udt13011lv.1.2 bus2=p13ulv28520.1.2 switch=n enabled=y phases=2 Linecode=1P_UG_AL_4/0_Sweetbriar_2

New Line.l(r:p13udt13013lv-p13ulv28523) Units=km Length=0.0177816 bus1=p13udt13013lv.1.2 bus2=p13ulv28523.1.2 switch=n enabled=y phases=2 Linecode=1P_OH_AL_2/0_Rucina_2

New Line.l(r:p13udt13013lv-p13ulv28524) Units=km Length=0.0157442 bus1=p13udt13013lv.1.2 bus2=p13ulv28524.1.2 switch=n enabled=y phases=2 Linecode=1P_OH_AL_2/0_Rucina_2

New Line.l(r:p13udt13016lv-p13ulv28535) Units=km Length=0.006936170000000001 bus1=p13udt13016lv.1.2 bus2=p13ulv28535.1.2 switch=n enabled=y phases=2 Linecode=1P_OH_AL_2/0_Rucina_2

New Line.l(r:p13udt13021lv-p13ulv28545) Units=km Length=0.0109292 bus1=p13udt13021lv.1.2 bus2=p13ulv28545.1.2 switch=n enabled=y phases=2 Linecode=1P_UG_AL_4/0_Sweetbriar_2

New Line.l(r:p13udt13025lv-p13ulv28550) Units=km Length=0.012004500000000001 bus1=p13udt13025lv.1.2 bus2=p13ulv28550.1.2 switch=n enabled=y phases=2 Linecode=1P_UG_AL_4/0_Sweetbriar_2

New Line.l(r:p13udt13028lv-p13ulv28557) Units=km Length=0.00876621 bus1=p13udt13028lv.1.2 bus2=p13ulv28557.1.2 switch=n enabled=y phases=2 Linecode=1P_UG_AL_4/0_Sweetbriar_2

New Line.l(r:p13udt13029lv-p13ulv28561) Units=km Length=0.005241870000000001 bus1=p13udt13029lv.1.2 bus2=p13ulv28561.1.2 switch=n enabled=y phases=2 Linecode=1P_OH_AL_2/0_Rucina_2

New Line.l(r:p13udt13031lv-p13ulv28563) Units=km Length=0.00931554 bus1=p13udt13031lv.1.2 bus2=p13ulv28563.1.2 switch=n enabled=y phases=2 Linecode=1P_UG_AL_4/0_Sweetbriar_2

New Line.l(r:p13udt13033lv-p13ulv28566) Units=km Length=0.0095219 bus1=p13udt13033lv.1.2 bus2=p13ulv28566.1.2 switch=n enabled=y phases=2 Linecode=1P_OH_AL_2/0_Rucina_2

New Line.l(r:p13udm55328-p13ulv28567) Units=km Length=0.00994609 bus1=p13udm55328.1.2 bus2=p13ulv28567.1.2 switch=n enabled=y phases=2 Linecode=1P_OH_AL_2/0_Rucina_2

New Line.l(r:p13udm55328-p13udt13033lv) Units=km Length=0.0182712 bus1=p13udt13033lv.1.2 bus2=p13udm55328.1.2 switch=n enabled=y phases=2 Linecode=1P_OH_AL_2/0_Rucina_2

New Line.l(r:p13udt13034lv-p13ulv28569) Units=km Length=0.0087124 bus1=p13udt13034lv.1.2 bus2=p13ulv28569.1.2 switch=n enabled=y phases=2 Linecode=1P_UG_AL_4/0_Sweetbriar_2

New Line.l(r:p13udt13036lv-p13ulv28571) Units=km Length=0.00849888 bus1=p13udt13036lv.1.2 bus2=p13ulv28571.1.2 switch=n enabled=y phases=2 Linecode=1P_OH_AL_2/0_Rucina_2_7

New Line.l(r:p13udt13051lv-p13ulv28597) Units=km Length=0.012576 bus1=p13udt13051lv.1.2 bus2=p13ulv28597.1.2 switch=n enabled=y phases=2 Linecode=1P_OH_AL_2/0_Rucina_2

New Line.l(r:p13udm55981-p13ulv28953) Units=km Length=0.012722000000000002 bus1=p13udm55981.1.2 bus2=p13ulv28953.1.2 switch=n enabled=y phases=2 Linecode=1P_OH_AL_2/0_Rucina_2

New Line.l(r:p13udm55981-p13ulv41953) Units=km Length=0.0161421 bus1=p13udm55981.1.2 bus2=p13ulv41953.1.2 switch=n enabled=y phases=2 Linecode=1P_OH_AL_2/0_Rucina_2

New Line.l(r:p13udm55981-p13udt13227lv) Units=km Length=0.0179627 bus1=p13udt13227lv.1.2 bus2=p13udm55981.1.2 switch=n enabled=y phases=2 Linecode=1P_OH_AL_2/0_Rucina_2

New Line.l(r:p13udm55983-p13ulv43468) Units=km Length=0.0139962 bus1=p13udm55983.1.2 bus2=p13ulv43468.1.2 switch=n enabled=y phases=2 Linecode=1P_UG_AL_1/0_Brenau_2

New Line.l(r:p13udm55983-p13udt13227lv) Units=km Length=0.0179742 bus1=p13udt13227lv.1.2 bus2=p13udm55983.1.2 switch=n enabled=y phases=2 Linecode=1P_OH_AL_2/0_Rucina_2

New Line.l(r:p13udt13228lv-p13ulv28955) Units=km Length=0.0165638 bus1=p13udt13228lv.1.2 bus2=p13ulv28955.1.2 switch=n enabled=y phases=2 Linecode=1P_OH_AL_2/0_Rucina_2

New Line.l(r:p13udt13228lv-p13ulv41942) Units=km Length=0.0142549 bus1=p13udt13228lv.1.2 bus2=p13ulv41942.1.2 switch=n enabled=y phases=2 Linecode=1P_OH_AL_2/0_Rucina_2

New Line.l(r:p13udm55984-p13ulv28954) Units=km Length=0.0161732 bus1=p13udm55984.1.2 bus2=p13ulv28954.1.2 switch=n enabled=y phases=2 Linecode=1P_OH_AL_2/0_Rucina_2

New Line.l(r:p13udm55984-p13udt13228lv) Units=km Length=0.016100000000000003 bus1=p13udt13228lv.1.2 bus2=p13udm55984.1.2 switch=n enabled=y phases=2 Linecode=1P_OH_AL_2/0_Rucina_2

New Line.l(r:p13udm55987-p13ulv43456) Units=km Length=0.0165627 bus1=p13udm55987.1.2 bus2=p13ulv43456.1.2 switch=n enabled=y phases=2 Linecode=1P_OH_AL_2/0_Rucina_2

New Line.l(r:p13udm55987-p13udt13228lv) Units=km Length=0.016100000000000003 bus1=p13udt13228lv.1.2 bus2=p13udm55987.1.2 switch=n enabled=y phases=2 Linecode=1P_OH_AL_2/0_Rucina_2

New Line.l(r:p13udt13233lv-p13ulv28961) Units=km Length=0.0376154 bus1=p13udt13233lv.1.2 bus2=p13ulv28961.1.2 switch=n enabled=y phases=2 Linecode=1P_UG_AL_1/0_Brenau_2

New Line.l(r:p13udt13233lv-p13ulv28963) Units=km Length=0.0224449 bus1=p13udt13233lv.1.2 bus2=p13ulv28963.1.2 switch=n enabled=y phases=2 Linecode=1P_UG_AL_4/0_Sweetbriar_2

New Line.l(r:p13udt13235lv-p13ulv28964) Units=km Length=0.0121159 bus1=p13udt13235lv.1.2 bus2=p13ulv28964.1.2 switch=n enabled=y phases=2 Linecode=1P_UG_AL_1/0_Brenau_2

New Line.l(r:p13udm56004-p13ulv28965) Units=km Length=0.00906021 bus1=p13udm56004.1.2 bus2=p13ulv28965.1.2 switch=n enabled=y phases=2 Linecode=1P_UG_AL_1/0_Brenau_2

New Line.l(r:p13udm56004-p13ulv28966) Units=km Length=0.0279192 bus1=p13udm56004.1.2 bus2=p13ulv28966.1.2 switch=n enabled=y phases=2 Linecode=1P_UG_AL_1/0_Brenau_2

New Line.l(r:p13udm56007-p13ulv41957) Units=km Length=0.010862200000000002 bus1=p13udm56007.1.2 bus2=p13ulv41957.1.2 switch=n enabled=y phases=2 Linecode=1P_UG_AL_1/0_Brenau_2

New Line.l(r:p13udm56004-p13udm56007) Units=km Length=0.0131608 bus1=p13udm56004.1.2 bus2=p13udm56007.1.2 switch=n enabled=y phases=2 Linecode=1P_UG_AL_1/0_Brenau_2

New Line.l(r:p13udm56004-p13udt13235lv) Units=km Length=0.00807129 bus1=p13udt13235lv.1.2 bus2=p13udm56004.1.2 switch=n enabled=y phases=2 Linecode=1P_UG_AL_4/0_Sweetbriar_2

New Line.l(r:p13udm56006-p13ulv28967) Units=km Length=0.00918178 bus1=p13udm56006.1.2 bus2=p13ulv28967.1.2 switch=n enabled=y phases=2 Linecode=1P_UG_AL_1/0_Brenau_2

New Line.l(r:p13udm56008-p13ulv41991) Units=km Length=0.0109998 bus1=p13udm56008.1.2 bus2=p13ulv41991.1.2 switch=n enabled=y phases=2 Linecode=1P_UG_AL_1/0_Brenau_2

New Line.l(r:p13udm56006-p13udm56008) Units=km Length=0.011907000000000001 bus1=p13udm56006.1.2 bus2=p13udm56008.1.2 switch=n enabled=y phases=2 Linecode=1P_UG_AL_1/0_Brenau_2

New Line.l(r:p13udm56006-p13udt13235lv) Units=km Length=0.0128501 bus1=p13udt13235lv.1.2 bus2=p13udm56006.1.2 switch=n enabled=y phases=2 Linecode=1P_UG_AL_1/0_Brenau_2

New Line.l(r:p13udt13236lv-p13ulv28968) Units=km Length=0.00722047 bus1=p13udt13236lv.1.2 bus2=p13ulv28968.1.2 switch=n enabled=y phases=2 Linecode=1P_OH_AL_2/0_Rucina_2

New Line.l(r:p13udt13236lv-p13ulv28969) Units=km Length=0.0148887 bus1=p13udt13236lv.1.2 bus2=p13ulv28969.1.2 switch=n enabled=y phases=2 Linecode=1P_OH_AL_2/0_Rucina_2

New Line.l(r:p13udt13237lv-p13ulv28970) Units=km Length=0.0111456 bus1=p13udt13237lv.1.2 bus2=p13ulv28970.1.2 switch=n enabled=y phases=2 Linecode=1P_OH_AL_2/0_Rucina_2

New Line.l(r:p13udt13237lv-p13ulv28972) Units=km Length=0.00854008 bus1=p13udt13237lv.1.2 bus2=p13ulv28972.1.2 switch=n enabled=y phases=2 Linecode=1P_OH_AL_2/0_Rucina_2

New Line.l(r:p13udm56013-p13ulv28973) Units=km Length=0.007028830000000001 bus1=p13udm56013.1.2 bus2=p13ulv28973.1.2 switch=n enabled=y phases=2 Linecode=1P_OH_AL_2/0_Rucina_2

New Line.l(r:p13udm56013-p13udt13237lv) Units=km Length=0.0291631 bus1=p13udt13237lv.1.2 bus2=p13udm56013.1.2 switch=n enabled=y phases=2 Linecode=1P_OH_AL_4/0_Zuzara_2

New Line.l(r:p13udt13238lv-p13ulv41948) Units=km Length=0.0100539 bus1=p13udt13238lv.1.2 bus2=p13ulv41948.1.2 switch=n enabled=y phases=2 Linecode=1P_UG_AL_4/0_Sweetbriar_2

New Line.l(r:p13udm56014-p13ulv28971) Units=km Length=0.0100048 bus1=p13udm56014.1.2 bus2=p13ulv28971.1.2 switch=n enabled=y phases=2 Linecode=1P_UG_AL_1/0_Brenau_2

New Line.l(r:p13udm56014-p13udt13238lv) Units=km Length=0.01849 bus1=p13udt13238lv.1.2 bus2=p13udm56014.1.2 switch=n enabled=y phases=2 Linecode=1P_UG_AL_1/0_Brenau_2

New Line.l(r:p13udm56016-p13ulv41950) Units=km Length=0.00945331 bus1=p13udm56016.1.2 bus2=p13ulv41950.1.2 switch=n enabled=y phases=2 Linecode=1P_UG_AL_1/0_Brenau_2

New Line.l(r:p13udm56016-p13udt13238lv) Units=km Length=0.0184884 bus1=p13udt13238lv.1.2 bus2=p13udm56016.1.2 switch=n enabled=y phases=2 Linecode=1P_UG_AL_1/0_Brenau_2

New Line.l(r:p13udt13239lv-p13ulv28974) Units=km Length=0.00969912 bus1=p13udt13239lv.1.2 bus2=p13ulv28974.1.2 switch=n enabled=y phases=2 Linecode=1P_OH_AL_2/0_Rucina_2

New Line.l(r:p13udm56018-p13ulv41940) Units=km Length=0.0120903 bus1=p13udm56018.1.2 bus2=p13ulv41940.1.2 switch=n enabled=y phases=2 Linecode=1P_OH_AL_2/0_Rucina_2

New Line.l(r:p13udm56018-p13udt13239lv) Units=km Length=0.0129415 bus1=p13udt13239lv.1.2 bus2=p13udm56018.1.2 switch=n enabled=y phases=2 Linecode=1P_OH_AL_2/0_Rucina_2

New Line.l(r:p13udm56019-p13ulv43455) Units=km Length=0.00905429 bus1=p13udm56019.1.2 bus2=p13ulv43455.1.2 switch=n enabled=y phases=2 Linecode=1P_OH_AL_2/0_Rucina_2

New Line.l(r:p13udm56019-p13udt13239lv) Units=km Length=0.0281631 bus1=p13udt13239lv.1.2 bus2=p13udm56019.1.2 switch=n enabled=y phases=2 Linecode=1P_OH_AL_4/0_Zuzara_2

New Line.l(r:p13udt13240lv-p13ulv28975) Units=km Length=0.00939534 bus1=p13udt13240lv.1.2 bus2=p13ulv28975.1.2 switch=n enabled=y phases=2 Linecode=1P_OH_AL_2/0_Rucina_2_7

New Line.l(r:p13udt13241lv-p13ulv28976) Units=km Length=0.00914342 bus1=p13udt13241lv.1.2 bus2=p13ulv28976.1.2 switch=n enabled=y phases=2 Linecode=1P_OH_AL_2/0_Rucina_2

New Line.l(r:p13udt13242lv-p13ulv29001) Units=km Length=0.0088702 bus1=p13udt13242lv.1.2 bus2=p13ulv29001.1.2 switch=n enabled=y phases=2 Linecode=1P_UG_AL_4/0_Sweetbriar_2

New Line.l(r:p13udm56022-p13ulv28978) Units=km Length=0.00867613 bus1=p13udm56022.1.2 bus2=p13ulv28978.1.2 switch=n enabled=y phases=2 Linecode=1P_UG_AL_4/0_Sweetbriar_2

New Line.l(r:p13udm56022-p13udt13242lv) Units=km Length=0.00987948 bus1=p13udt13242lv.1.2 bus2=p13udm56022.1.2 switch=n enabled=y phases=2 Linecode=1P_UG_AL_4/0_Sweetbriar_2

New Line.l(r:p13udt13249lv-p13ulv28991) Units=km Length=0.00994304 bus1=p13udt13249lv.1.2 bus2=p13ulv28991.1.2 switch=n enabled=y phases=2 Linecode=1P_OH_AL_2/0_Rucina_2_7

New Line.l(r:p13udt13250lv-p13ulv28992) Units=km Length=0.0125095 bus1=p13udt13250lv.1.2 bus2=p13ulv28992.1.2 switch=n enabled=y phases=2 Linecode=1P_OH_AL_2/0_Rucina_2

New Line.l(r:p13udm56036-p13ulv28993) Units=km Length=0.010021600000000002 bus1=p13udm56036.1.2 bus2=p13ulv28993.1.2 switch=n enabled=y phases=2 Linecode=1P_OH_AL_2/0_Rucina_2

New Line.l(r:p13udm56036-p13udt13250lv) Units=km Length=0.0169446 bus1=p13udt13250lv.1.2 bus2=p13udm56036.1.2 switch=n enabled=y phases=2 Linecode=1P_OH_AL_2/0_Rucina_2

New Line.l(r:p13udt13251lv-p13ulv28998) Units=km Length=0.010915 bus1=p13udt13251lv.1.2 bus2=p13ulv28998.1.2 switch=n enabled=y phases=2 Linecode=1P_OH_AL_2/0_Rucina_2

New Line.l(r:p13udm61823-p13ulv32069) Units=km Length=0.0086465 bus1=p13udm61823.1.2 bus2=p13ulv32069.1.2 switch=n enabled=y phases=2 Linecode=1P_UG_AL_2/0_Converse_2

New Line.l(r:p13udm61823-p13udt14722lv) Units=km Length=0.0122918 bus1=p13udt14722lv.1.2 bus2=p13udm61823.1.2 switch=n enabled=y phases=2 Linecode=1P_OH_AL_2/0_Rucina_2_2

New Line.l(r:p13udm61824-p13ulv32080) Units=km Length=0.00388491 bus1=p13udm61824.1.2 bus2=p13ulv32080.1.2 switch=n enabled=y phases=2 Linecode=1P_OH_AL_4_Periwinkle_2

New Line.l(r:p13udm61824-p13udt14722lv) Units=km Length=0.0172055 bus1=p13udt14722lv.1.2 bus2=p13udm61824.1.2 switch=n enabled=y phases=2 Linecode=1P_OH_AL_2/0_Rucina_2

New Line.l(r:p13udt14724lv-p13ulv32072) Units=km Length=0.0117632 bus1=p13udt14724lv.1.2 bus2=p13ulv32072.1.2 switch=n enabled=y phases=2 Linecode=1P_UG_AL_2/0_Converse_2

New Line.l(r:p13udt14725lv-p13ulv39490) Units=km Length=0.00339485 bus1=p13udt14725lv.1.2 bus2=p13ulv39490.1.2 switch=n enabled=y phases=2 Linecode=1P_OH_AL_4_Periwinkle_2

New Line.l(r:p13udt14725lv-p13ulv39497) Units=km Length=0.00153792 bus1=p13udt14725lv.1.2 bus2=p13ulv39497.1.2 switch=n enabled=y phases=2 Linecode=1P_OH_AL_4_Periwinkle_2

New Line.l(r:p13udm61829-p13ulv32074) Units=km Length=0.00375729 bus1=p13udm61829.1.2 bus2=p13ulv32074.1.2 switch=n enabled=y phases=2 Linecode=1P_OH_AL_4_Periwinkle_2

New Line.l(r:p13udm61829-p13udt14725lv) Units=km Length=0.0127987 bus1=p13udt14725lv.1.2 bus2=p13udm61829.1.2 switch=n enabled=y phases=2 Linecode=1P_OH_AL_2/0_Rucina_2

New Line.l(r:p13udm61830-p13ulv39485) Units=km Length=0.0037665 bus1=p13udm61830.1.2 bus2=p13ulv39485.1.2 switch=n enabled=y phases=2 Linecode=1P_OH_AL_4_Periwinkle_2

New Line.l(r:p13udm61830-p13ulv39499) Units=km Length=0.00937897 bus1=p13udm61830.1.2 bus2=p13ulv39499.1.2 switch=n enabled=y phases=2 Linecode=1P_OH_AL_2/0_Rucina_2

New Line.l(r:p13udm61830-p13udt14725lv) Units=km Length=0.00749787 bus1=p13udt14725lv.1.2 bus2=p13udm61830.1.2 switch=n enabled=y phases=2 Linecode=1P_OH_AL_2/0_Rucina_2

New Line.l(r:p13udt14726lv-p13ulv32075) Units=km Length=0.00833217 bus1=p13udt14726lv.1.2 bus2=p13ulv32075.1.2 switch=n enabled=y phases=2 Linecode=1P_OH_AL_2/0_Rucina_2

New Line.l(r:p13udt14726lv-p13ulv39483) Units=km Length=0.0199443 bus1=p13udt14726lv.1.2 bus2=p13ulv39483.1.2 switch=n enabled=y phases=2 Linecode=1P_OH_AL_2/0_Rucina_2

New Line.l(r:p13udt14726lv-p13ulv39502) Units=km Length=0.00611955 bus1=p13udt14726lv.1.2 bus2=p13ulv39502.1.2 switch=n enabled=y phases=2 Linecode=1P_OH_AL_2/0_Rucina_2

New Line.l(r:p13udm61836-p13ulv39496) Units=km Length=0.00698576 bus1=p13udm61836.1.2 bus2=p13ulv39496.1.2 switch=n enabled=y phases=2 Linecode=1P_OH_AL_2/0_Rucina_2_3

New Line.l(r:p13udm61836-p13udt14726lv) Units=km Length=0.0176081 bus1=p13udt14726lv.1.2 bus2=p13udm61836.1.2 switch=n enabled=y phases=2 Linecode=1P_OH_AL_2/0_Rucina_2_3

New Line.l(r:p13udt14727lv-p13ulv32076) Units=km Length=0.00179613 bus1=p13udt14727lv.1.2 bus2=p13ulv32076.1.2 switch=n enabled=y phases=2 Linecode=1P_OH_AL_4_Periwinkle_2

New Line.l(r:p13udt14727lv-p13ulv39482) Units=km Length=0.019613100000000005 bus1=p13udt14727lv.1.2 bus2=p13ulv39482.1.2 switch=n enabled=y phases=2 Linecode=1P_OH_AL_2/0_Rucina_2

New Line.l(r:p13udm61840-p13ulv39505) Units=km Length=0.013401200000000002 bus1=p13udm61840.1.2 bus2=p13ulv39505.1.2 switch=n enabled=y phases=2 Linecode=1P_OH_AL_2/0_Rucina_2

New Line.l(r:p13udm61840-p13ulv39506) Units=km Length=0.00380064 bus1=p13udm61840.1.2 bus2=p13ulv39506.1.2 switch=n enabled=y phases=2 Linecode=1P_OH_AL_4_Periwinkle_2

New Line.l(r:p13udm61840-p13udt14727lv) Units=km Length=0.0194421 bus1=p13udt14727lv.1.2 bus2=p13udm61840.1.2 switch=n enabled=y phases=2 Linecode=1P_OH_AL_2/0_Rucina_2

New Line.l(r:p13udt14729lv-p13ulv39787) Units=km Length=0.0075473 bus1=p13udt14729lv.1.2 bus2=p13ulv39787.1.2 switch=n enabled=y phases=2 Linecode=1P_OH_AL_2/0_Rucina_2

New Line.l(r:p13udm61843-p13ulv32078) Units=km Length=0.00498595 bus1=p13udm61843.1.2 bus2=p13ulv32078.1.2 switch=n enabled=y phases=2 Linecode=1P_OH_AL_2/0_Rucina_2

New Line.l(r:p13udm61843-p13ulv39826) Units=km Length=0.0158024 bus1=p13udm61843.1.2 bus2=p13ulv39826.1.2 switch=n enabled=y phases=2 Linecode=1P_OH_AL_2/0_Rucina_2

New Line.l(r:p13udm61843-p13udt14729lv) Units=km Length=0.015635 bus1=p13udt14729lv.1.2 bus2=p13udm61843.1.2 switch=n enabled=y phases=2 Linecode=1P_OH_AL_2/0_Rucina_2

New Line.l(r:p13udm61844-p13ulv39516) Units=km Length=0.00674604 bus1=p13udm61844.1.2 bus2=p13ulv39516.1.2 switch=n enabled=y phases=2 Linecode=1P_OH_AL_2/0_Rucina_2

New Line.l(r:p13udm61844-p13udt14729lv) Units=km Length=0.015636 bus1=p13udt14729lv.1.2 bus2=p13udm61844.1.2 switch=n enabled=y phases=2 Linecode=1P_OH_AL_2/0_Rucina_2

New Line.l(r:p13udt14731lv-p13ulv32081) Units=km Length=0.0257257 bus1=p13udt14731lv.1.2 bus2=p13ulv32081.1.2 switch=n enabled=y phases=2 Linecode=1P_OH_AL_2/0_Rucina_2

New Line.l(r:p13udm61849-p13ulv39463) Units=km Length=0.00516152 bus1=p13udm61849.1.2 bus2=p13ulv39463.1.2 switch=n enabled=y phases=2 Linecode=1P_OH_AL_2/0_Rucina_2

New Line.l(r:p13udm61849-p13udt14731lv) Units=km Length=0.0168708 bus1=p13udt14731lv.1.2 bus2=p13udm61849.1.2 switch=n enabled=y phases=2 Linecode=1P_OH_AL_2/0_Rucina_2

New Line.l(r:p13udt14733lv-p13ulv32084) Units=km Length=0.009974870000000002 bus1=p13udt14733lv.1.2 bus2=p13ulv32084.1.2 switch=n enabled=y phases=2 Linecode=1P_UG_AL_4/0_Sweetbriar_2

New Line.l(r:p13udt14734lv-p13ulv32086) Units=km Length=0.00873487 bus1=p13udt14734lv.1.2 bus2=p13ulv32086.1.2 switch=n enabled=y phases=2 Linecode=1P_OH_AL_2/0_Rucina_2

New Line.l(r:p13udm61854-p13ulv32087) Units=km Length=0.0109054 bus1=p13udm61854.1.2 bus2=p13ulv32087.1.2 switch=n enabled=y phases=2 Linecode=1P_OH_AL_2/0_Rucina_2

New Line.l(r:p13udm61854-p13udt14734lv) Units=km Length=0.0175168 bus1=p13udt14734lv.1.2 bus2=p13udm61854.1.2 switch=n enabled=y phases=2 Linecode=1P_OH_AL_2/0_Rucina_2

New Line.l(r:p13udt17601lv-p13ulv39459) Units=km Length=0.0379112 bus1=p13udt17601lv.1.2 bus2=p13ulv39459.1.2 switch=n enabled=y phases=2 Linecode=1P_OH_AL_4/0_Zuzara_2

New Line.l(r:p13udt17601lv-p13ulv39466) Units=km Length=0.0228027 bus1=p13udt17601lv.1.2 bus2=p13ulv39466.1.2 switch=n enabled=y phases=2 Linecode=1P_OH_AL_2/0_Rucina_2

New Line.l(r:p13udt17601lv-p13ulv39467) Units=km Length=0.0325509 bus1=p13udt17601lv.1.2 bus2=p13ulv39467.1.2 switch=n enabled=y phases=2 Linecode=1P_OH_AL_4/0_Zuzara_2

New Line.l(r:p13udt17601lv-p13ulv39477) Units=km Length=0.0184315 bus1=p13udt17601lv.1.2 bus2=p13ulv39477.1.2 switch=n enabled=y phases=2 Linecode=1P_OH_AL_2/0_Rucina_2

New Line.l(r:p13udm72583-p13ulv39486) Units=km Length=0.0181916 bus1=p13udm72583.1.2 bus2=p13ulv39486.1.2 switch=n enabled=y phases=2 Linecode=1P_OH_AL_2/0_Rucina_2

New Line.l(r:p13udm72583-p13udt17601lv) Units=km Length=0.00405011 bus1=p13udt17601lv.1.2 bus2=p13udm72583.1.2 switch=n enabled=y phases=2 Linecode=1P_OH_AL_2/0_Rucina_2

New Line.l(r:p13udt17606lv-p13ulv39472) Units=km Length=0.00727571 bus1=p13udt17606lv.1.2 bus2=p13ulv39472.1.2 switch=n enabled=y phases=2 Linecode=1P_OH_AL_2/0_Rucina_2

New Line.l(r:p13udm72592-p13ulv39470) Units=km Length=0.00440218 bus1=p13udm72592.1.2 bus2=p13ulv39470.1.2 switch=n enabled=y phases=2 Linecode=1P_OH_AL_2/0_Rucina_2

New Line.l(r:p13udm72594-p13ulv39478) Units=km Length=0.00419144 bus1=p13udm72594.1.2 bus2=p13ulv39478.1.2 switch=n enabled=y phases=2 Linecode=1P_OH_AL_2/0_Rucina_2

New Line.l(r:p13udm72592-p13udm72594) Units=km Length=0.00832509 bus1=p13udm72592.1.2 bus2=p13udm72594.1.2 switch=n enabled=y phases=2 Linecode=1P_OH_AL_2/0_Rucina_2

New Line.l(r:p13udm72592-p13udt17606lv) Units=km Length=0.005720140000000001 bus1=p13udt17606lv.1.2 bus2=p13udm72592.1.2 switch=n enabled=y phases=2 Linecode=1P_OH_AL_2/0_Rucina_2

New Line.l(r:p13udm72596-p13ulv39480) Units=km Length=0.0028114900000000003 bus1=p13udm72596.1.2 bus2=p13ulv39480.1.2 switch=n enabled=y phases=2 Linecode=1P_OH_AL_4_Periwinkle_2

New Line.l(r:p13udm72595-p13ulv39479) Units=km Length=0.00356253 bus1=p13udm72595.1.2 bus2=p13ulv39479.1.2 switch=n enabled=y phases=2 Linecode=1P_OH_AL_4_Periwinkle_2

New Line.l(r:p13udm72597-p13ulv39495) Units=km Length=0.001 bus1=p13udm72597.1.2 bus2=p13ulv39495.1.2 switch=n enabled=y phases=2 Linecode=1P_OH_AL_4_Periwinkle_2

New Line.l(r:p13udm72595-p13udm72597) Units=km Length=0.0111097 bus1=p13udm72595.1.2 bus2=p13udm72597.1.2 switch=n enabled=y phases=2 Linecode=1P_OH_AL_2/0_Rucina_2

New Line.l(r:p13udm72595-p13udm72596) Units=km Length=0.00405011 bus1=p13udm72596.1.2 bus2=p13udm72595.1.2 switch=n enabled=y phases=2 Linecode=1P_OH_AL_2/0_Rucina_2

New Line.l(r:p13udm72596-p13udt17606lv) Units=km Length=0.0069067 bus1=p13udt17606lv.1.2 bus2=p13udm72596.1.2 switch=n enabled=y phases=2 Linecode=1P_OH_AL_2/0_Rucina_2

New Line.l(r:p13udt17608lv-p13ulv39474) Units=km Length=0.0107721 bus1=p13udt17608lv.1.2 bus2=p13ulv39474.1.2 switch=n enabled=y phases=2 Linecode=1P_UG_AL_4/0_Sweetbriar_2

New Line.l(r:p13udt17614lv-p13ulv39498) Units=km Length=0.0205933 bus1=p13udt17614lv.1.2 bus2=p13ulv39498.1.2 switch=n enabled=y phases=2 Linecode=1P_UG_AL_4/0_Sweetbriar_2

New Line.l(r:p13udt17620lv-p13ulv39509) Units=km Length=0.00589356 bus1=p13udt17620lv.1.2 bus2=p13ulv39509.1.2 switch=n enabled=y phases=2 Linecode=1P_OH_AL_2/0_Rucina_2

New Line.l(r:p13udt17620lv-p13ulv39513) Units=km Length=0.0111566 bus1=p13udt17620lv.1.2 bus2=p13ulv39513.1.2 switch=n enabled=y phases=2 Linecode=1P_OH_AL_2/0_Rucina_2

New Line.l(r:p13udt17622lv-p13ulv39517) Units=km Length=0.010115 bus1=p13udt17622lv.1.2 bus2=p13ulv39517.1.2 switch=n enabled=y phases=2 Linecode=1P_UG_AL_1/0_Brenau_2

New Line.l(r:p13udm72617-p13ulv39515) Units=km Length=0.0111858 bus1=p13udm72617.1.2 bus2=p13ulv39515.1.2 switch=n enabled=y phases=2 Linecode=1P_UG_AL_1/0_Brenau_2

New Line.l(r:p13udm72617-p13udt17622lv) Units=km Length=0.0187687 bus1=p13udt17622lv.1.2 bus2=p13udm72617.1.2 switch=n enabled=y phases=2 Linecode=1P_UG_AL_1/0_Brenau_2

New Line.l(r:p13udm72619-p13ulv39518) Units=km Length=0.0114893 bus1=p13udm72619.1.2 bus2=p13ulv39518.1.2 switch=n enabled=y phases=2 Linecode=1P_UG_AL_2/0_Converse_2

New Line.l(r:p13udm72619-p13udt17622lv) Units=km Length=0.03520260000000001 bus1=p13udt17622lv.1.2 bus2=p13udm72619.1.2 switch=n enabled=y phases=2 Linecode=1P_UG_AL_2/0_Converse_2

New Line.l(r:p13udt17628lv-p13ulv39785) Units=km Length=0.0070094 bus1=p13udt17628lv.1.2 bus2=p13ulv39785.1.2 switch=n enabled=y phases=2 Linecode=1P_OH_AL_2/0_Rucina_2

...